@<TRIPOS>MOLECULE
122582637
 68 72 0 0 0
SMALL
GASTEIGER

@<TRIPOS>ATOM
      1 CL         -4.5134   -2.8619    2.7054 Cl      1  UNL1       -0.0832
      2 CL         -6.6499   -2.6352   -3.1492 Cl      1  UNL1       -0.0835
      3 O           6.4794    0.4049    2.4519 O.2     1  UNL1       -0.2700
      4 O           2.7602    2.9501   -0.6187 O.3     1  UNL1       -0.4932
      5 O          -0.5730   -0.3442    1.3817 O.2     1  UNL1       -0.2681
      6 N           6.6789   -0.8606    0.4966 N.am    1  UNL1       -0.2951
      7 N           8.3677   -1.7646   -1.6330 N.3     1  UNL1       -0.3024
      8 N          -5.4599    0.8493    0.5173 N.pl3   1  UNL1       -0.3213
      9 N          -5.1844    3.1783   -1.0326 N.pl3   1  UNL1       -0.3247
     10 N          -2.8389    3.0403   -0.8557 N.ar    1  UNL1       -0.1318
     11 N           0.6402    1.3507    0.2941 N.am    1  UNL1       -0.2772
     12 N          -1.7002    2.4282   -0.4364 N.ar    1  UNL1       -0.1427
     13 C           8.0624   -1.2503    0.7590 C.3     1  UNL1        0.0278
     14 C           6.0927   -1.4576   -0.7086 C.3     1  UNL1        0.0278
     15 C           8.9382   -1.0564   -0.4777 C.3     1  UNL1        0.0145
     16 C           7.0119   -1.2736   -1.9181 C.3     1  UNL1        0.0145
     17 C           6.0074   -0.0415    1.4073 C.2     1  UNL1        0.2468
     18 C           9.2273   -1.6097   -2.8058 C.3     1  UNL1       -0.0126
     19 C          -6.5983    1.7459    0.3210 C.3     1  UNL1        0.0282
     20 C          -6.4570    2.4948   -0.9969 C.3     1  UNL1        0.0263
     21 C          -4.1942    1.3486    0.2099 C.ar    1  UNL1        0.0743
     22 C          -5.6331   -0.3115    1.3752 C.3     1  UNL1        0.0388
     23 C           4.6148    0.3239    1.1157 C.ar    1  UNL1        0.0405
     24 C          -4.0558    2.5184   -0.5589 C.ar    1  UNL1        0.1625
     25 C          -3.0110    0.7305    0.6187 C.ar    1  UNL1       -0.0049
     26 C          -5.6014   -1.5765    0.5630 C.ar    1  UNL1       -0.0105
     27 C           4.3347    1.4752    0.3797 C.ar    1  UNL1       -0.0060
     28 C           3.5723   -0.4809    1.5754 C.ar    1  UNL1       -0.0476
     29 C          -1.7988    1.2973    0.2797 C.ar    1  UNL1        0.1498
     30 C           1.9697    1.0171    0.5630 C.ar    1  UNL1        0.0759
     31 C           3.0121    1.8218    0.1032 C.ar    1  UNL1        0.1419
     32 C           2.2498   -0.1341    1.2992 C.ar    1  UNL1       -0.0362
     33 C          -5.1113   -2.7720    1.0888 C.ar    1  UNL1        0.0457
     34 C          -6.0773   -1.5343   -0.7475 C.ar    1  UNL1       -0.0373
     35 C          -0.5166    0.6760    0.7035 C.2     1  UNL1        0.2685
     36 C          -6.0635   -2.6875   -1.5321 C.ar    1  UNL1        0.0414
     37 C          -5.0972   -3.9251    0.3040 C.ar    1  UNL1       -0.0417
     38 C          -5.5736   -3.8829   -1.0063 C.ar    1  UNL1       -0.0420
     39 C           2.6889    2.8091   -2.0359 C.3     1  UNL1        0.0789
     40 H           8.0494   -2.3052    1.0597 H       1  UNL1        0.0477
     41 H           8.4728   -0.6773    1.5969 H       1  UNL1        0.0477
     42 H           5.1101   -1.0368   -0.9327 H       1  UNL1        0.0477
     43 H           5.9490   -2.5245   -0.4976 H       1  UNL1        0.0477
     44 H           9.0383    0.0159   -0.6928 H       1  UNL1        0.0442
     45 H           9.9399   -1.4441   -0.2569 H       1  UNL1        0.0442
     46 H           6.5837   -1.8250   -2.7637 H       1  UNL1        0.0442
     47 H           7.0380   -0.2114   -2.1964 H       1  UNL1        0.0442
     48 H           8.8238   -2.1723   -3.6549 H       1  UNL1        0.0391
     49 H          10.2255   -2.0152   -2.6068 H       1  UNL1        0.0391
     50 H           9.3345   -0.5611   -3.1063 H       1  UNL1        0.0391
     51 H          -6.6478    2.4532    1.1589 H       1  UNL1        0.0479
     52 H          -7.5394    1.1836    0.3137 H       1  UNL1        0.0479
     53 H          -6.5196    1.7998   -1.8428 H       1  UNL1        0.0477
     54 H          -7.2686    3.2213   -1.1077 H       1  UNL1        0.0477
     55 H          -6.6179   -0.2729    1.8610 H       1  UNL1        0.0513
     56 H          -4.9152   -0.2876    2.2000 H       1  UNL1        0.0513
     57 H          -5.0610    4.0045   -1.6041 H       1  UNL1        0.1476
     58 H          -3.0251   -0.1882    1.1943 H       1  UNL1        0.0661
     59 H           5.1455    2.1044    0.0199 H       1  UNL1        0.0662
     60 H           3.7812   -1.3809    2.1482 H       1  UNL1        0.0626
     61 H           1.5047   -0.8139    1.6860 H       1  UNL1        0.0637
     62 H          -6.4869   -0.6269   -1.1799 H       1  UNL1        0.0636
     63 H           0.5074    2.1988   -0.2527 H       1  UNL1        0.1553
     64 H          -4.7183   -4.8644    0.6989 H       1  UNL1        0.0633
     65 H          -5.5565   -4.7892   -1.6062 H       1  UNL1        0.0633
     66 H           2.4450    3.7847   -2.4651 H       1  UNL1        0.0660
     67 H           1.9067    2.0976   -2.3187 H       1  UNL1        0.0660
     68 H           3.6543    2.4827   -2.4357 H       1  UNL1        0.0660
@<TRIPOS>BOND
     1     1    33    1
     2     2    36    1
     3     3    17    2
     4     4    31    1
     5     4    39    1
     6     5    35    2
     7     6    13    1
     8     6    14    1
     9     6    17   am
    10     7    15    1
    11     7    16    1
    12     7    18    1
    13     8    19    1
    14     8    21    1
    15     8    22    1
    16     9    20    1
    17     9    24    1
    18     9    57    1
    19    10    12   ar
    20    10    24   ar
    21    11    30    1
    22    11    35   am
    23    11    63    1
    24    12    29   ar
    25    13    15    1
    26    13    40    1
    27    13    41    1
    28    14    16    1
    29    14    42    1
    30    14    43    1
    31    15    44    1
    32    15    45    1
    33    16    46    1
    34    16    47    1
    35    17    23    1
    36    18    48    1
    37    18    49    1
    38    18    50    1
    39    19    20    1
    40    19    51    1
    41    19    52    1
    42    20    53    1
    43    20    54    1
    44    21    24   ar
    45    21    25   ar
    46    22    26    1
    47    22    55    1
    48    22    56    1
    49    23    27   ar
    50    23    28   ar
    51    25    29   ar
    52    25    58    1
    53    26    33   ar
    54    26    34   ar
    55    27    31   ar
    56    27    59    1
    57    28    32   ar
    58    28    60    1
    59    29    35    1
    60    30    31   ar
    61    30    32   ar
    62    32    61    1
    63    33    37   ar
    64    34    36   ar
    65    34    62    1
    66    36    38   ar
    67    37    38   ar
    68    37    64    1
    69    38    65    1
    70    39    66    1
    71    39    67    1
    72    39    68    1
