@<TRIPOS>MOLECULE
121478218
 64 68 0 0 0
SMALL
GASTEIGER

@<TRIPOS>ATOM
      1 CL         -2.4087    3.7286   -0.7881 Cl      1  UNL1       -0.0832
      2 CL         -6.7617    1.3119    2.9675 Cl      1  UNL1       -0.0835
      3 O           5.0083    0.8346    2.5358 O.2     1  UNL1       -0.2700
      4 O           0.4932   -0.0694    0.1090 O.2     1  UNL1       -0.2681
      5 N           6.3084    2.3053   -2.0583 N.3     1  UNL1       -0.3024
      6 N           5.7143    0.8038    0.3074 N.am    1  UNL1       -0.2951
      7 N          -4.3795   -0.1690   -1.4077 N.pl3   1  UNL1       -0.3213
      8 N          -4.8985   -2.9316   -1.3871 N.pl3   1  UNL1       -0.3247
      9 N          -2.6826   -3.3613   -0.7114 N.ar    1  UNL1       -0.1318
     10 N           1.0555   -2.3324    0.4115 N.am    1  UNL1       -0.2802
     11 N          -1.4385   -2.9546   -0.3452 N.ar    1  UNL1       -0.1427
     12 C           5.8450    0.1237   -0.9860 C.3     1  UNL1        0.0278
     13 C           6.4103    2.0856    0.3953 C.3     1  UNL1        0.0278
     14 C           5.5159    1.0701   -2.1424 C.3     1  UNL1        0.0145
     15 C           6.0564    2.9916   -0.7828 C.3     1  UNL1        0.0145
     16 C          -5.5485   -0.7069   -2.1023 C.3     1  UNL1        0.0282
     17 C           6.0056    3.1875   -3.1846 C.3     1  UNL1       -0.0126
     18 C           5.0612    0.2940    1.4320 C.2     1  UNL1        0.2467
     19 C          -6.0029   -2.0014   -1.4424 C.3     1  UNL1        0.0263
     20 C          -3.3820   -1.0733   -1.0431 C.ar    1  UNL1        0.0743
     21 C          -4.1185    1.2584   -1.4955 C.3     1  UNL1        0.0388
     22 C          -3.6387   -2.4562   -1.0402 C.ar    1  UNL1        0.1625
     23 C           4.3789   -1.0011    1.3099 C.ar    1  UNL1        0.0387
     24 C          -4.3486    1.9193   -0.1647 C.ar    1  UNL1       -0.0105
     25 C          -2.1012   -0.6785   -0.6514 C.ar    1  UNL1       -0.0049
     26 C           3.0409   -1.0515    0.9188 C.ar    1  UNL1       -0.0283
     27 C          -1.1694   -1.6400   -0.3158 C.ar    1  UNL1        0.1498
     28 C           5.0701   -2.1812    1.5849 C.ar    1  UNL1       -0.0495
     29 C           2.3940   -2.2819    0.8024 C.ar    1  UNL1        0.0344
     30 C          -3.6181    3.0393    0.2324 C.ar    1  UNL1        0.0457
     31 C          -5.3210    1.3850    0.6807 C.ar    1  UNL1       -0.0373
     32 C           0.2077   -1.2620    0.0971 C.2     1  UNL1        0.2684
     33 C           4.4231   -3.4116    1.4688 C.ar    1  UNL1       -0.0593
     34 C           3.0852   -3.4620    1.0773 C.ar    1  UNL1       -0.0404
     35 C          -5.5629    1.9710    1.9234 C.ar    1  UNL1        0.0414
     36 C          -3.8602    3.6253    1.4750 C.ar    1  UNL1       -0.0417
     37 C          -4.8326    3.0912    2.3203 C.ar    1  UNL1       -0.0420
     38 H           6.8834   -0.2224   -1.0600 H       1  UNL1        0.0477
     39 H           5.2047   -0.7590   -1.0464 H       1  UNL1        0.0477
     40 H           6.1708    2.5914    1.3364 H       1  UNL1        0.0477
     41 H           7.4857    1.8694    0.4049 H       1  UNL1        0.0477
     42 H           5.7295    0.5511   -3.0845 H       1  UNL1        0.0442
     43 H           4.4420    1.3004   -2.1291 H       1  UNL1        0.0442
     44 H           5.0037    3.2959   -0.7092 H       1  UNL1        0.0442
     45 H           6.6681    3.8993   -0.7176 H       1  UNL1        0.0442
     46 H          -5.2916   -0.8843   -3.1547 H       1  UNL1        0.0479
     47 H          -6.3757    0.0124   -2.0860 H       1  UNL1        0.0479
     48 H           6.2336    2.6905   -4.1341 H       1  UNL1        0.0391
     49 H           6.6276    4.0886   -3.1449 H       1  UNL1        0.0391
     50 H           4.9536    3.4949   -3.2000 H       1  UNL1        0.0391
     51 H          -6.3659   -1.8081   -0.4259 H       1  UNL1        0.0477
     52 H          -6.8294   -2.4441   -2.0079 H       1  UNL1        0.0477
     53 H          -4.8185    1.7230   -2.2038 H       1  UNL1        0.0513
     54 H          -3.1286    1.4402   -1.9235 H       1  UNL1        0.0513
     55 H          -5.0681   -3.9289   -1.3549 H       1  UNL1        0.1476
     56 H          -1.8251    0.3687   -0.6020 H       1  UNL1        0.0661
     57 H           2.5654   -0.1010    0.7204 H       1  UNL1        0.0644
     58 H           6.1129   -2.1533    1.8898 H       1  UNL1        0.0625
     59 H          -5.9233    0.5291    0.3934 H       1  UNL1        0.0636
     60 H           0.6557   -3.2663    0.3461 H       1  UNL1        0.1552
     61 H           4.9613   -4.3303    1.6828 H       1  UNL1        0.0618
     62 H           2.5937   -4.4278    0.9908 H       1  UNL1        0.0636
     63 H          -3.2997    4.4985    1.7990 H       1  UNL1        0.0633
     64 H          -5.0104    3.5581    3.2857 H       1  UNL1        0.0633
@<TRIPOS>BOND
     1     1    30    1
     2     2    35    1
     3     3    18    2
     4     4    32    2
     5     5    14    1
     6     5    15    1
     7     5    17    1
     8     6    12    1
     9     6    13    1
    10     6    18   am
    11     7    16    1
    12     7    20    1
    13     7    21    1
    14     8    19    1
    15     8    22    1
    16     8    55    1
    17     9    11   ar
    18     9    22   ar
    19    10    29    1
    20    10    32   am
    21    10    60    1
    22    11    27   ar
    23    12    14    1
    24    12    38    1
    25    12    39    1
    26    13    15    1
    27    13    40    1
    28    13    41    1
    29    14    42    1
    30    14    43    1
    31    15    44    1
    32    15    45    1
    33    16    19    1
    34    16    46    1
    35    16    47    1
    36    17    48    1
    37    17    49    1
    38    17    50    1
    39    18    23    1
    40    19    51    1
    41    19    52    1
    42    20    22   ar
    43    20    25   ar
    44    21    24    1
    45    21    53    1
    46    21    54    1
    47    23    26   ar
    48    23    28   ar
    49    24    30   ar
    50    24    31   ar
    51    25    27   ar
    52    25    56    1
    53    26    29   ar
    54    26    57    1
    55    27    32    1
    56    28    33   ar
    57    28    58    1
    58    29    34   ar
    59    30    36   ar
    60    31    35   ar
    61    31    59    1
    62    33    34   ar
    63    33    61    1
    64    34    62    1
    65    35    37   ar
    66    36    37   ar
    67    36    63    1
    68    37    64    1
