@<TRIPOS>MOLECULE
122582678
 68 72 0 0 0
SMALL
GASTEIGER

@<TRIPOS>ATOM
      1 CL         -4.0049    3.2852   -2.0813 Cl      1  UNL1       -0.0832
      2 CL         -7.6701    1.6069    2.6772 Cl      1  UNL1       -0.0835
      3 O           6.1692    0.5970    2.5867 O.2     1  UNL1       -0.2699
      4 O           4.0049    1.8787    0.3472 O.3     1  UNL1       -0.4943
      5 O          -0.4292    0.4925   -0.3298 O.2     1  UNL1       -0.2681
      6 N           6.8421   -0.1313    0.4696 N.am    1  UNL1       -0.2950
      7 N           8.5865    0.2430   -1.7711 N.3     1  UNL1       -0.3024
      8 N          -5.2716   -0.8522   -1.2229 N.pl3   1  UNL1       -0.3213
      9 N          -5.2849   -3.4975   -0.2721 N.pl3   1  UNL1       -0.3247
     10 N          -2.9983   -3.3328    0.2718 N.ar    1  UNL1       -0.1318
     11 N           0.5439   -1.4277    0.6161 N.am    1  UNL1       -0.2801
     12 N          -1.8314   -2.6414    0.3588 N.ar    1  UNL1       -0.1427
     13 C           8.2440    0.2284    0.6705 C.3     1  UNL1        0.0278
     14 C           6.5572   -0.7950   -0.8073 C.3     1  UNL1        0.0278
     15 C           8.7969    0.9985   -0.5275 C.3     1  UNL1        0.0145
     16 C           7.1544   -0.0140   -1.9799 C.3     1  UNL1        0.0145
     17 C           5.9165    0.1005    1.4899 C.2     1  UNL1        0.2502
     18 C           9.1506    0.9640   -2.9115 C.3     1  UNL1       -0.0126
     19 C          -6.3568   -1.7629   -1.5856 C.3     1  UNL1        0.0282
     20 C          -6.5397   -2.8197   -0.5052 C.3     1  UNL1        0.0263
     21 C          -4.1118   -1.4201   -0.6952 C.ar    1  UNL1        0.0743
     22 C          -5.2754    0.4880   -1.7862 C.3     1  UNL1        0.0388
     23 C           4.5173   -0.2811    1.2567 C.ar    1  UNL1        0.0786
     24 C          -4.1158   -2.7462   -0.2266 C.ar    1  UNL1        0.1625
     25 C          -2.9055   -0.7256   -0.5842 C.ar    1  UNL1       -0.0049
     26 C          -5.5568    1.5081   -0.7180 C.ar    1  UNL1       -0.0105
     27 C           3.6133    0.6203    0.6943 C.ar    1  UNL1        0.1339
     28 C           4.0968   -1.5647    1.6054 C.ar    1  UNL1       -0.0443
     29 C          -1.8014   -1.3663   -0.0590 C.ar    1  UNL1        0.1498
     30 C           1.8683   -1.0453    0.8297 C.ar    1  UNL1        0.0372
     31 C           2.2889    0.2381    0.4807 C.ar    1  UNL1        0.0020
     32 C           2.7724   -1.9467    1.3921 C.ar    1  UNL1       -0.0395
     33 C          -5.0211    2.7947   -0.7753 C.ar    1  UNL1        0.0457
     34 C          -6.3762    1.1406    0.3494 C.ar    1  UNL1       -0.0373
     35 C          -0.4965   -0.6658    0.0676 C.2     1  UNL1        0.2684
     36 C          -6.6600    2.0598    1.3595 C.ar    1  UNL1        0.0414
     37 C          -5.3048    3.7140    0.2348 C.ar    1  UNL1       -0.0417
     38 C          -6.1245    3.3466    1.3020 C.ar    1  UNL1       -0.0420
     39 C           3.0132    2.7315   -0.2211 C.3     1  UNL1        0.0788
     40 H           8.7996   -0.7061    0.8169 H       1  UNL1        0.0477
     41 H           8.3630    0.8248    1.5809 H       1  UNL1        0.0477
     42 H           5.4845   -0.9240   -0.9666 H       1  UNL1        0.0477
     43 H           7.0005   -1.7969   -0.7511 H       1  UNL1        0.0477
     44 H           8.3130    1.9826   -0.5868 H       1  UNL1        0.0442
     45 H           9.8685    1.1663   -0.3667 H       1  UNL1        0.0442
     46 H           7.0082   -0.6003   -2.8950 H       1  UNL1        0.0442
     47 H           6.6079    0.9308   -2.1029 H       1  UNL1        0.0442
     48 H           9.0312    0.3813   -3.8316 H       1  UNL1        0.0391
     49 H          10.2268    1.1174   -2.7749 H       1  UNL1        0.0391
     50 H           8.6786    1.9422   -3.0588 H       1  UNL1        0.0391
     51 H          -6.1225   -2.2365   -2.5476 H       1  UNL1        0.0479
     52 H          -7.2979   -1.2151   -1.7130 H       1  UNL1        0.0479
     53 H          -6.8827   -2.3595    0.4291 H       1  UNL1        0.0477
     54 H          -7.2993   -3.5462   -0.8118 H       1  UNL1        0.0477
     55 H          -6.0802    0.5784   -2.5289 H       1  UNL1        0.0513
     56 H          -4.3555    0.6681   -2.3498 H       1  UNL1        0.0513
     57 H          -5.2712   -4.4415    0.0927 H       1  UNL1        0.1476
     58 H          -2.8197    0.3084   -0.8989 H       1  UNL1        0.0661
     59 H           4.7925   -2.2756    2.0437 H       1  UNL1        0.0627
     60 H           1.5947    0.9333    0.0475 H       1  UNL1        0.0673
     61 H           2.4584   -2.9501    1.6686 H       1  UNL1        0.0636
     62 H          -6.8281    0.1558    0.4129 H       1  UNL1        0.0636
     63 H           0.3154   -2.3804    0.8926 H       1  UNL1        0.1552
     64 H          -4.8953    4.7205    0.2047 H       1  UNL1        0.0633
     65 H          -6.3371    4.0733    2.0819 H       1  UNL1        0.0633
     66 H           3.5009    3.6886   -0.4350 H       1  UNL1        0.0660
     67 H           2.2052    2.9445    0.4873 H       1  UNL1        0.0660
     68 H           2.6471    2.3471   -1.1795 H       1  UNL1        0.0660
@<TRIPOS>BOND
     1     1    33    1
     2     2    36    1
     3     3    17    2
     4     4    27    1
     5     4    39    1
     6     5    35    2
     7     6    13    1
     8     6    14    1
     9     6    17   am
    10     7    15    1
    11     7    16    1
    12     7    18    1
    13     8    19    1
    14     8    21    1
    15     8    22    1
    16     9    20    1
    17     9    24    1
    18     9    57    1
    19    10    12   ar
    20    10    24   ar
    21    11    30    1
    22    11    35   am
    23    11    63    1
    24    12    29   ar
    25    13    15    1
    26    13    40    1
    27    13    41    1
    28    14    16    1
    29    14    42    1
    30    14    43    1
    31    15    44    1
    32    15    45    1
    33    16    46    1
    34    16    47    1
    35    17    23    1
    36    18    48    1
    37    18    49    1
    38    18    50    1
    39    19    20    1
    40    19    51    1
    41    19    52    1
    42    20    53    1
    43    20    54    1
    44    21    24   ar
    45    21    25   ar
    46    22    26    1
    47    22    55    1
    48    22    56    1
    49    23    27   ar
    50    23    28   ar
    51    25    29   ar
    52    25    58    1
    53    26    33   ar
    54    26    34   ar
    55    27    31   ar
    56    28    32   ar
    57    28    59    1
    58    29    35    1
    59    30    31   ar
    60    30    32   ar
    61    31    60    1
    62    32    61    1
    63    33    37   ar
    64    34    36   ar
    65    34    62    1
    66    36    38   ar
    67    37    38   ar
    68    37    64    1
    69    38    65    1
    70    39    66    1
    71    39    67    1
    72    39    68    1
