@<TRIPOS>MOLECULE
117991320
 64 68 0 0 0
SMALL
GASTEIGER

@<TRIPOS>ATOM
      1 CL         -4.3053   -2.4532    2.9748 Cl      1  UNL1       -0.0832
      2 CL         -6.4822   -2.9483   -2.8482 Cl      1  UNL1       -0.0835
      3 O           6.6548    1.0088    2.1978 O.2     1  UNL1       -0.2700
      4 O          -0.4144   -0.0439    1.3307 O.2     1  UNL1       -0.2681
      5 N           8.5177   -1.6895   -1.5714 N.3     1  UNL1       -0.3024
      6 N           6.8475   -0.5212    0.4409 N.am    1  UNL1       -0.2951
      7 N          -5.3265    0.9611    0.3748 N.pl3   1  UNL1       -0.3213
      8 N          -5.1011    3.0967   -1.4389 N.pl3   1  UNL1       -0.3247
      9 N          -2.7526    3.0183   -1.2675 N.ar    1  UNL1       -0.1318
     10 N          -1.6009    2.4779   -0.7893 N.ar    1  UNL1       -0.1427
     11 N           0.7642    1.5311    0.0424 N.am    1  UNL1       -0.2802
     12 C           9.0929   -0.8112   -0.5422 C.3     1  UNL1        0.0145
     13 C           7.1464   -1.2713   -1.8957 C.3     1  UNL1        0.0145
     14 C           8.2439   -0.8420    0.7276 C.3     1  UNL1        0.0278
     15 C           6.2534   -1.2971   -0.6533 C.3     1  UNL1        0.0278
     16 C          -6.4815    1.8100    0.0849 C.3     1  UNL1        0.0282
     17 C           9.3525   -1.6885   -2.7721 C.3     1  UNL1       -0.0126
     18 C           6.1744    0.4073    1.2384 C.2     1  UNL1        0.2467
     19 C          -6.3617    2.4015   -1.3127 C.3     1  UNL1        0.0263
     20 C          -4.0717    1.4415    0.0003 C.ar    1  UNL1        0.0743
     21 C          -5.4743   -0.0940    1.3640 C.3     1  UNL1        0.0388
     22 C          -3.9584    2.5151   -0.9012 C.ar    1  UNL1        0.1625
     23 C           4.7689    0.6995    0.9265 C.ar    1  UNL1        0.0370
     24 C          -5.4263   -1.4448    0.7052 C.ar    1  UNL1       -0.0105
     25 C          -2.8753    0.8945    0.4684 C.ar    1  UNL1       -0.0049
     26 C          -1.6753    1.4373    0.0549 C.ar    1  UNL1        0.1498
     27 C           3.7535   -0.0512    1.5192 C.ar    1  UNL1       -0.0479
     28 C           4.4493    1.7271    0.0391 C.ar    1  UNL1       -0.0479
     29 C           2.0991    1.2531    0.3366 C.ar    1  UNL1        0.0338
     30 C          -4.9131   -2.5626    1.3631 C.ar    1  UNL1        0.0457
     31 C          -5.9116   -1.5638   -0.5970 C.ar    1  UNL1       -0.0373
     32 C           2.4186    0.2256    1.2242 C.ar    1  UNL1       -0.0398
     33 C           3.1145    2.0039   -0.2560 C.ar    1  UNL1       -0.0398
     34 C          -0.3799    0.8907    0.5375 C.2     1  UNL1        0.2684
     35 C          -5.8839   -2.8007   -1.2413 C.ar    1  UNL1        0.0414
     36 C          -4.8852   -3.7994    0.7188 C.ar    1  UNL1       -0.0417
     37 C          -5.3706   -3.9184   -0.5834 C.ar    1  UNL1       -0.0420
     38 H           9.1651    0.2207   -0.9111 H       1  UNL1        0.0442
     39 H          10.1068   -1.1433   -0.2890 H       1  UNL1        0.0442
     40 H           6.7156   -1.9471   -2.6442 H       1  UNL1        0.0442
     41 H           7.1439   -0.2601   -2.3243 H       1  UNL1        0.0442
     42 H           8.6563   -0.1463    1.4657 H       1  UNL1        0.0477
     43 H           8.2599   -1.8426    1.1769 H       1  UNL1        0.0477
     44 H           6.1376   -2.3250   -0.2882 H       1  UNL1        0.0477
     45 H           5.2577   -0.9325   -0.9149 H       1  UNL1        0.0477
     46 H          -6.5375    2.6096    0.8347 H       1  UNL1        0.0479
     47 H          -7.4129    1.2355    0.1515 H       1  UNL1        0.0479
     48 H           8.9465   -2.3754   -3.5229 H       1  UNL1        0.0391
     49 H          10.3629   -2.0415   -2.5379 H       1  UNL1        0.0391
     50 H           9.4308   -0.6923   -3.2224 H       1  UNL1        0.0391
     51 H          -6.4180    1.6114   -2.0710 H       1  UNL1        0.0477
     52 H          -7.1862    3.0969   -1.5008 H       1  UNL1        0.0477
     53 H          -6.4563   -0.0148    1.8505 H       1  UNL1        0.0513
     54 H          -4.7514    0.0378    2.1741 H       1  UNL1        0.0513
     55 H          -4.9957    3.8522   -2.1042 H       1  UNL1        0.1476
     56 H          -2.8700    0.0494    1.1476 H       1  UNL1        0.0661
     57 H           3.9930   -0.8541    2.2117 H       1  UNL1        0.0626
     58 H           5.2331    2.3174   -0.4285 H       1  UNL1        0.0626
     59 H          -6.3392   -0.7200   -1.1292 H       1  UNL1        0.0636
     60 H           1.6914   -0.3995    1.7227 H       1  UNL1        0.0636
     61 H           2.8800    2.8075   -0.9495 H       1  UNL1        0.0636
     62 H           0.6121    2.2974   -0.6102 H       1  UNL1        0.1552
     63 H          -4.4885   -4.6800    1.2178 H       1  UNL1        0.0633
     64 H          -5.3426   -4.8884   -1.0732 H       1  UNL1        0.0633
@<TRIPOS>BOND
     1     1    30    1
     2     2    35    1
     3     3    18    2
     4     4    34    2
     5     5    12    1
     6     5    13    1
     7     5    17    1
     8     6    14    1
     9     6    15    1
    10     6    18   am
    11     7    16    1
    12     7    20    1
    13     7    21    1
    14     8    19    1
    15     8    22    1
    16     8    55    1
    17     9    10   ar
    18     9    22   ar
    19    10    26   ar
    20    11    29    1
    21    11    34   am
    22    11    62    1
    23    12    14    1
    24    12    38    1
    25    12    39    1
    26    13    15    1
    27    13    40    1
    28    13    41    1
    29    14    42    1
    30    14    43    1
    31    15    44    1
    32    15    45    1
    33    16    19    1
    34    16    46    1
    35    16    47    1
    36    17    48    1
    37    17    49    1
    38    17    50    1
    39    18    23    1
    40    19    51    1
    41    19    52    1
    42    20    22   ar
    43    20    25   ar
    44    21    24    1
    45    21    53    1
    46    21    54    1
    47    23    27   ar
    48    23    28   ar
    49    24    30   ar
    50    24    31   ar
    51    25    26   ar
    52    25    56    1
    53    26    34    1
    54    27    32   ar
    55    27    57    1
    56    28    33   ar
    57    28    58    1
    58    29    32   ar
    59    29    33   ar
    60    30    36   ar
    61    31    35   ar
    62    31    59    1
    63    32    60    1
    64    33    61    1
    65    35    37   ar
    66    36    37   ar
    67    36    63    1
    68    37    64    1
