@<TRIPOS>MOLECULE
122582638
 62 66 0 0 0
SMALL
GASTEIGER

@<TRIPOS>ATOM
      1 CL         -4.7412   -2.9325    1.9544 Cl      1  UNL1       -0.0832
      2 CL         -6.6269   -0.5796   -3.5046 Cl      1  UNL1       -0.0835
      3 O          -0.2070   -1.4220    1.0557 O.2     1  UNL1       -0.2681
      4 N           6.2656   -0.3432   -0.1573 N.pl3   1  UNL1       -0.3274
      5 N           8.8696    0.7330   -0.6266 N.3     1  UNL1       -0.3024
      6 N          -4.5013    1.3284    0.8369 N.pl3   1  UNL1       -0.3213
      7 N          -3.5205    3.7941   -0.0904 N.pl3   1  UNL1       -0.3247
      8 N           1.4560    0.0770    0.3532 N.am    1  UNL1       -0.2801
      9 N          -1.3262    2.9361   -0.1059 N.ar    1  UNL1       -0.1318
     10 N          -0.4285    1.9311    0.0713 N.ar    1  UNL1       -0.1427
     11 C           6.7198    0.8369    0.5888 C.3     1  UNL1        0.0250
     12 C           7.3262   -1.1975   -0.7001 C.3     1  UNL1        0.0250
     13 C           7.7666    1.6107   -0.2159 C.3     1  UNL1        0.0144
     14 C           8.3546   -0.3582   -1.4626 C.3     1  UNL1        0.0144
     15 C           5.0310   -0.9044    0.1880 C.ar    1  UNL1        0.0315
     16 C           9.8896    1.4940   -1.3472 C.3     1  UNL1       -0.0126
     17 C          -5.3170    2.5371    0.9468 C.3     1  UNL1        0.0282
     18 C          -3.1400    1.4982    0.5843 C.ar    1  UNL1        0.0743
     19 C          -4.9397    3.5273   -0.1461 C.3     1  UNL1        0.0263
     20 C          -5.0257    0.0876    1.3839 C.3     1  UNL1        0.0388
     21 C           3.8678   -0.1396    0.0993 C.ar    1  UNL1       -0.0194
     22 C           4.9639   -2.2287    0.6208 C.ar    1  UNL1       -0.0405
     23 C          -2.6476    2.7341    0.1277 C.ar    1  UNL1        0.1625
     24 C           2.6374   -0.6992    0.4436 C.ar    1  UNL1        0.0355
     25 C          -2.2014    0.4773    0.7469 C.ar    1  UNL1       -0.0049
     26 C          -5.3618   -0.8751    0.2789 C.ar    1  UNL1       -0.0105
     27 C           3.7334   -2.7883    0.9650 C.ar    1  UNL1       -0.0583
     28 C           2.5702   -2.0235    0.8766 C.ar    1  UNL1       -0.0404
     29 C          -0.8706    0.7331    0.4841 C.ar    1  UNL1        0.1498
     30 C           0.1368   -0.2983    0.6500 C.2     1  UNL1        0.2684
     31 C          -5.2595   -2.2552    0.4538 C.ar    1  UNL1        0.0457
     32 C          -5.7847   -0.3567   -0.9450 C.ar    1  UNL1       -0.0373
     33 C          -6.1055   -1.2185   -1.9940 C.ar    1  UNL1        0.0414
     34 C          -5.5802   -3.1169   -0.5952 C.ar    1  UNL1       -0.0417
     35 C          -6.0031   -2.5986   -1.8191 C.ar    1  UNL1       -0.0420
     36 H           7.1441    0.5146    1.5486 H       1  UNL1        0.0476
     37 H           5.8925    1.5192    0.8155 H       1  UNL1        0.0476
     38 H           6.9111   -1.9383   -1.3948 H       1  UNL1        0.0476
     39 H           7.8251   -1.7374    0.1151 H       1  UNL1        0.0476
     40 H           7.2897    2.0708   -1.0919 H       1  UNL1        0.0442
     41 H           8.1492    2.4241    0.4125 H       1  UNL1        0.0442
     42 H           9.1763   -1.0174   -1.7679 H       1  UNL1        0.0442
     43 H           7.8969    0.0387   -2.3790 H       1  UNL1        0.0442
     44 H          10.2996    2.2856   -0.7103 H       1  UNL1        0.0391
     45 H           9.4964    1.9551   -2.2606 H       1  UNL1        0.0391
     46 H          10.7294    0.8461   -1.6221 H       1  UNL1        0.0391
     47 H          -6.3829    2.2962    0.8586 H       1  UNL1        0.0479
     48 H          -5.1649    2.9850    1.9373 H       1  UNL1        0.0479
     49 H          -5.1950    3.1257   -1.1340 H       1  UNL1        0.0477
     50 H          -5.4954    4.4619   -0.0177 H       1  UNL1        0.0477
     51 H          -5.9608    0.2845    1.9262 H       1  UNL1        0.0513
     52 H          -4.3453   -0.3144    2.1400 H       1  UNL1        0.0513
     53 H           3.9114    0.8892   -0.2516 H       1  UNL1        0.0655
     54 H           5.8503   -2.8492    0.7157 H       1  UNL1        0.0636
     55 H          -3.1479    4.6670   -0.4420 H       1  UNL1        0.1476
     56 H          -2.4986   -0.5135    1.0720 H       1  UNL1        0.0661
     57 H           3.6824   -3.8186    1.3052 H       1  UNL1        0.0619
     58 H           1.6569   -2.5262    1.1610 H       1  UNL1        0.0636
     59 H           1.5977    1.0328    0.0325 H       1  UNL1        0.1552
     60 H          -5.8980    0.7104   -1.1076 H       1  UNL1        0.0636
     61 H          -5.5058   -4.1948   -0.4748 H       1  UNL1        0.0633
     62 H          -6.2496   -3.2819   -2.6277 H       1  UNL1        0.0633
@<TRIPOS>BOND
     1     1    31    1
     2     2    33    1
     3     3    30    2
     4     4    11    1
     5     4    12    1
     6     4    15    1
     7     5    13    1
     8     5    14    1
     9     5    16    1
    10     6    17    1
    11     6    18    1
    12     6    20    1
    13     7    19    1
    14     7    23    1
    15     7    55    1
    16     8    24    1
    17     8    30   am
    18     8    59    1
    19     9    10   ar
    20     9    23   ar
    21    10    29   ar
    22    11    13    1
    23    11    36    1
    24    11    37    1
    25    12    14    1
    26    12    38    1
    27    12    39    1
    28    13    40    1
    29    13    41    1
    30    14    42    1
    31    14    43    1
    32    15    21   ar
    33    15    22   ar
    34    16    44    1
    35    16    45    1
    36    16    46    1
    37    17    19    1
    38    17    47    1
    39    17    48    1
    40    18    23   ar
    41    18    25   ar
    42    19    49    1
    43    19    50    1
    44    20    26    1
    45    20    51    1
    46    20    52    1
    47    21    24   ar
    48    21    53    1
    49    22    27   ar
    50    22    54    1
    51    24    28   ar
    52    25    29   ar
    53    25    56    1
    54    26    31   ar
    55    26    32   ar
    56    27    28   ar
    57    27    57    1
    58    28    58    1
    59    29    30    1
    60    31    34   ar
    61    32    33   ar
    62    32    60    1
    63    33    35   ar
    64    34    35   ar
    65    34    61    1
    66    35    62    1
