@<TRIPOS>MOLECULE
122582642
 62 66 0 0 0
SMALL
GASTEIGER

@<TRIPOS>ATOM
      1 CL         -3.7182   -3.0713    2.4070 Cl      1  UNL1       -0.0832
      2 CL         -6.6805   -2.0573   -2.9864 Cl      1  UNL1       -0.0835
      3 O           0.0741   -0.4675    0.8304 O.2     1  UNL1       -0.2681
      4 N           6.5396   -0.2146   -0.1186 N.pl3   1  UNL1       -0.3275
      5 N           9.2586   -1.0357    0.1847 N.3     1  UNL1       -0.3024
      6 N          -4.8416    0.9066    0.8659 N.pl3   1  UNL1       -0.3213
      7 N          -4.7148    3.4111   -0.4043 N.pl3   1  UNL1       -0.3247
      8 N           1.1543    1.3390   -0.2068 N.am    1  UNL1       -0.2802
      9 N          -2.3752    3.2134   -0.6006 N.ar    1  UNL1       -0.1318
     10 N          -1.2095    2.5338   -0.4369 N.ar    1  UNL1       -0.1427
     11 C           7.4944    0.6476    0.5892 C.3     1  UNL1        0.0250
     12 C           6.8866   -1.6382   -0.1687 C.3     1  UNL1        0.0250
     13 C           8.9194    0.3899    0.0943 C.3     1  UNL1        0.0144
     14 C           8.3320   -1.8226   -0.6382 C.3     1  UNL1        0.0144
     15 C           5.1953    0.1732   -0.1415 C.ar    1  UNL1        0.0299
     16 C          10.6399   -1.2621   -0.2392 C.3     1  UNL1       -0.0126
     17 C          -5.9642    1.8393    0.9565 C.3     1  UNL1        0.0282
     18 C          -3.6180    1.4208    0.4367 C.ar    1  UNL1        0.0743
     19 C          -5.9917    2.7493   -0.2635 C.3     1  UNL1        0.0263
     20 C          -4.9278   -0.3522    1.5881 C.3     1  UNL1        0.0388
     21 C           4.8312    1.3966   -0.7040 C.ar    1  UNL1       -0.0389
     22 C           4.2191   -0.6636    0.3995 C.ar    1  UNL1       -0.0389
     23 C          -3.5530    2.6774   -0.1919 C.ar    1  UNL1        0.1625
     24 C          -2.4101    0.7359    0.5826 C.ar    1  UNL1       -0.0049
     25 C          -5.0603   -1.5023    0.6287 C.ar    1  UNL1       -0.0105
     26 C           2.5151    0.9463   -0.1849 C.ar    1  UNL1        0.0338
     27 C           3.4912    1.7832   -0.7258 C.ar    1  UNL1       -0.0387
     28 C           2.8791   -0.2772    0.3778 C.ar    1  UNL1       -0.0387
     29 C          -1.2417    1.3219    0.1387 C.ar    1  UNL1        0.1498
     30 C           0.0352    0.6469    0.2806 C.2     1  UNL1        0.2684
     31 C          -4.5415   -2.7636    0.9215 C.ar    1  UNL1        0.0457
     32 C          -5.7219   -1.2837   -0.5796 C.ar    1  UNL1       -0.0373
     33 C          -5.8648   -2.3264   -1.4951 C.ar    1  UNL1        0.0414
     34 C          -4.6842   -3.8063    0.0059 C.ar    1  UNL1       -0.0417
     35 C          -5.3459   -3.5876   -1.2023 C.ar    1  UNL1       -0.0420
     36 H           7.4275    0.4499    1.6670 H       1  UNL1        0.0476
     37 H           7.2702    1.7103    0.4420 H       1  UNL1        0.0476
     38 H           6.2321   -2.1733   -0.8681 H       1  UNL1        0.0476
     39 H           6.7634   -2.0882    0.8248 H       1  UNL1        0.0476
     40 H           9.0194    0.7481   -0.9393 H       1  UNL1        0.0442
     41 H           9.6083    0.9788    0.7121 H       1  UNL1        0.0442
     42 H           8.5812   -2.8885   -0.5696 H       1  UNL1        0.0442
     43 H           8.4135   -1.5356   -1.6954 H       1  UNL1        0.0442
     44 H          11.3337   -0.7030    0.3984 H       1  UNL1        0.0391
     45 H          10.8099   -0.9626   -1.2797 H       1  UNL1        0.0391
     46 H          10.9043   -2.3205   -0.1375 H       1  UNL1        0.0391
     47 H          -6.9154    1.2980    1.0204 H       1  UNL1        0.0479
     48 H          -5.8652    2.4335    1.8741 H       1  UNL1        0.0479
     49 H          -6.2024    2.1704   -1.1707 H       1  UNL1        0.0477
     50 H          -6.7846    3.4972   -0.1595 H       1  UNL1        0.0477
     51 H          -5.8286   -0.3606    2.2173 H       1  UNL1        0.0513
     52 H          -4.0962   -0.4465    2.2922 H       1  UNL1        0.0513
     53 H           5.5750    2.0564   -1.1433 H       1  UNL1        0.0637
     54 H           4.4689   -1.6160    0.8585 H       1  UNL1        0.0637
     55 H          -4.6477    4.3019   -0.8800 H       1  UNL1        0.1476
     56 H          -2.3729   -0.2490    1.0344 H       1  UNL1        0.0661
     57 H           3.2207    2.7376   -1.1700 H       1  UNL1        0.0637
     58 H           2.1826   -0.9761    0.8185 H       1  UNL1        0.0637
     59 H           0.9802    2.2474   -0.6323 H       1  UNL1        0.1552
     60 H          -6.1580   -0.3216   -0.8289 H       1  UNL1        0.0636
     61 H          -4.2856   -4.7949    0.2192 H       1  UNL1        0.0633
     62 H          -5.4496   -4.4093   -1.9063 H       1  UNL1        0.0633
@<TRIPOS>BOND
     1     1    31    1
     2     2    33    1
     3     3    30    2
     4     4    11    1
     5     4    12    1
     6     4    15    1
     7     5    13    1
     8     5    14    1
     9     5    16    1
    10     6    17    1
    11     6    18    1
    12     6    20    1
    13     7    19    1
    14     7    23    1
    15     7    55    1
    16     8    26    1
    17     8    30   am
    18     8    59    1
    19     9    10   ar
    20     9    23   ar
    21    10    29   ar
    22    11    13    1
    23    11    36    1
    24    11    37    1
    25    12    14    1
    26    12    38    1
    27    12    39    1
    28    13    40    1
    29    13    41    1
    30    14    42    1
    31    14    43    1
    32    15    21   ar
    33    15    22   ar
    34    16    44    1
    35    16    45    1
    36    16    46    1
    37    17    19    1
    38    17    47    1
    39    17    48    1
    40    18    23   ar
    41    18    24   ar
    42    19    49    1
    43    19    50    1
    44    20    25    1
    45    20    51    1
    46    20    52    1
    47    21    27   ar
    48    21    53    1
    49    22    28   ar
    50    22    54    1
    51    24    29   ar
    52    24    56    1
    53    25    31   ar
    54    25    32   ar
    55    26    27   ar
    56    26    28   ar
    57    27    57    1
    58    28    58    1
    59    29    30    1
    60    31    34   ar
    61    32    33   ar
    62    32    60    1
    63    33    35   ar
    64    34    35   ar
    65    34    61    1
    66    35    62    1
