@<TRIPOS>MOLECULE
C26H33Cl2N7O2
 70 74 0 0 0
SMALL
GASTEIGER
****

@<TRIPOS>ATOM
      1 C           6.1081    1.9085    0.2748 C.ar    1  UNL1       -0.0373
      2 C           7.3718    2.4008    0.0024 C.ar    1  UNL1        0.0414
      3 CL          8.0827    3.5923    1.0458 Cl      1  UNL1       -0.0835
      4 C           8.0695    1.9432   -1.1015 C.ar    1  UNL1       -0.0420
      5 C           7.5035    0.9952   -1.9322 C.ar    1  UNL1       -0.0417
      6 C           6.2390    0.5034   -1.6602 C.ar    1  UNL1        0.0457
      7 CL          5.5276   -0.6873   -2.7043 Cl      1  UNL1       -0.0832
      8 C           5.5421    0.9598   -0.5559 C.ar    1  UNL1       -0.0105
      9 C           4.1652    0.4239   -0.2594 C.3     1  UNL1        0.0388
     10 N           4.2802   -0.8840    0.3996 N.pl3   1  UNL1       -0.3213
     11 C           3.0323   -1.3622    0.7779 C.ar    1  UNL1        0.0743
     12 C           1.9129   -1.0530    0.0117 C.ar    1  UNL1       -0.0049
     13 C           0.6769   -1.5601    0.4276 C.ar    1  UNL1        0.1495
     14 C          -0.5454   -1.2612   -0.3493 C.2     1  UNL1        0.2645
     15 O          -0.4769   -0.5746   -1.3499 O.2     1  UNL1       -0.2685
     16 N          -1.7355   -1.7501    0.0523 N.am    1  UNL1       -0.3071
     17 H          -1.7902   -2.2980    0.8508 H       1  UNL1        0.1493
     18 C          -2.9464   -1.4540   -0.7173 C.3     1  UNL1        0.0263
     19 C          -3.9853   -2.5513   -0.4754 C.3     1  UNL1       -0.0186
     20 C          -5.2368   -2.2567   -1.3083 C.3     1  UNL1        0.0163
     21 N          -5.7066   -0.9008   -0.9926 N.am    1  UNL1       -0.3011
     22 C          -6.9804   -0.6878   -0.6074 C.2     1  UNL1        0.2187
     23 O          -7.7223   -1.6285   -0.4189 O.2     1  UNL1       -0.2753
     24 C          -7.4828    0.7194   -0.4108 C.3     1  UNL1        0.0381
     25 C          -8.9857    0.7710   -0.6990 C.3     1  UNL1       -0.0290
     26 C          -9.5016    2.1882   -0.4389 C.3     1  UNL1       -0.0007
     27 N          -9.2400    2.5569    0.9582 N.3     1  UNL1       -0.3053
     28 C          -9.8445    3.8561    1.2818 C.3     1  UNL1       -0.0128
     29 C          -7.8000    2.5603    1.2458 C.3     1  UNL1       -0.0007
     30 C          -7.2333    1.1543    1.0360 C.3     1  UNL1       -0.0290
     31 C          -4.7611    0.2183   -1.1045 C.3     1  UNL1        0.0163
     32 C          -3.5150   -0.1041   -0.2738 C.3     1  UNL1       -0.0186
     33 N           0.6030   -2.3096    1.5211 N.ar    1  UNL1       -0.1427
     34 N           1.6356   -2.5935    2.2285 N.ar    1  UNL1       -0.1318
     35 C           2.8473   -2.1561    1.9146 C.ar    1  UNL1        0.1625
     36 N           3.9337   -2.4821    2.7219 N.pl3   1  UNL1       -0.3247
     37 H           3.8071   -2.8806    3.5972 H       1  UNL1        0.1476
     38 C           5.2817   -2.2012    2.1999 C.3     1  UNL1        0.0263
     39 C           5.2319   -0.8290    1.5141 C.3     1  UNL1        0.0282
     40 H           5.5655    2.2622    1.1391 H       1  UNL1        0.0636
     41 H           9.0563    2.3273   -1.3140 H       1  UNL1        0.0633
     42 H           8.0478    0.6383   -2.7940 H       1  UNL1        0.0633
     43 H           3.6393    1.1167    0.3975 H       1  UNL1        0.0513
     44 H           3.6098    0.3139   -1.1908 H       1  UNL1        0.0513
     45 H           1.9952   -0.4415   -0.8747 H       1  UNL1        0.0661
     46 H          -2.7013   -1.4135   -1.7786 H       1  UNL1        0.0499
     47 H          -3.5711   -3.5157   -0.7697 H       1  UNL1        0.0298
     48 H          -4.2494   -2.5757    0.5818 H       1  UNL1        0.0298
     49 H          -4.9935   -2.3214   -2.3689 H       1  UNL1        0.0465
     50 H          -6.0159   -2.9792   -1.0653 H       1  UNL1        0.0465
     51 H          -6.9583    1.3916   -1.0898 H       1  UNL1        0.0395
     52 H          -9.1660    0.5035   -1.7402 H       1  UNL1        0.0285
     53 H          -9.5056    0.0691   -0.0470 H       1  UNL1        0.0285
     54 H          -8.9911    2.8877   -1.1009 H       1  UNL1        0.0427
     55 H         -10.5742    2.2249   -0.6295 H       1  UNL1        0.0427
     56 H         -10.9226    3.8030    1.1303 H       1  UNL1        0.0391
     57 H          -9.6356    4.1050    2.3222 H       1  UNL1        0.0391
     58 H          -9.4238    4.6243    0.6329 H       1  UNL1        0.0391
     59 H          -7.2975    3.2581    0.5759 H       1  UNL1        0.0427
     60 H          -7.6367    2.8673    2.2788 H       1  UNL1        0.0427
     61 H          -7.7256    0.4584    1.7153 H       1  UNL1        0.0285
     62 H          -6.1615    1.1606    1.2344 H       1  UNL1        0.0285
     63 H          -4.4790    0.3554   -2.1484 H       1  UNL1        0.0465
     64 H          -5.2264    1.1288   -0.7270 H       1  UNL1        0.0465
     65 H          -3.7835   -0.1515    0.7815 H       1  UNL1        0.0298
     66 H          -2.7661    0.6734   -0.4247 H       1  UNL1        0.0298
     67 H           5.9995   -2.1797    3.0199 H       1  UNL1        0.0477
     68 H           5.5661   -2.9662    1.4774 H       1  UNL1        0.0477
     69 H           6.2220   -0.5745    1.1358 H       1  UNL1        0.0479
     70 H           4.9096   -0.0745    2.2316 H       1  UNL1        0.0479
@<TRIPOS>BOND
     1     1     2   ar
     2     2     3    1
     3     2     4   ar
     4     4     5   ar
     5     5     6   ar
     6     6     7    1
     7     6     8   ar
     8     1     8   ar
     9     8     9    1
    10     9    10    1
    11    10    11    1
    12    11    12   ar
    13    12    13   ar
    14    13    14    1
    15    14    15    2
    16    14    16   am
    17    16    17    1
    18    16    18    1
    19    18    19    1
    20    19    20    1
    21    20    21    1
    22    21    22   am
    23    22    23    2
    24    22    24    1
    25    24    25    1
    26    25    26    1
    27    26    27    1
    28    27    28    1
    29    27    29    1
    30    29    30    1
    31    24    30    1
    32    21    31    1
    33    31    32    1
    34    18    32    1
    35    13    33   ar
    36    33    34   ar
    37    34    35   ar
    38    11    35   ar
    39    35    36    1
    40    36    37    1
    41    36    38    1
    42    38    39    1
    43    10    39    1
    44     1    40    1
    45     4    41    1
    46     5    42    1
    47     9    43    1
    48     9    44    1
    49    12    45    1
    50    18    46    1
    51    19    47    1
    52    19    48    1
    53    20    49    1
    54    20    50    1
    55    24    51    1
    56    25    52    1
    57    25    53    1
    58    26    54    1
    59    26    55    1
    60    28    56    1
    61    28    57    1
    62    28    58    1
    63    29    59    1
    64    29    60    1
    65    30    61    1
    66    30    62    1
    67    31    63    1
    68    31    64    1
    69    32    65    1
    70    32    66    1
    71    38    67    1
    72    38    68    1
    73    39    69    1
    74    39    70    1
