@<TRIPOS>MOLECULE
121478144
 70 74 0 0 0
SMALL
GASTEIGER

@<TRIPOS>ATOM
      1 CL         -0.3479    1.6873   -2.5609 Cl      1  UNL1       -0.0832
      2 CL         -3.2552    4.6233    2.1103 Cl      1  UNL1       -0.0835
      3 O           0.9391   -4.2597   -0.4620 O.3     1  UNL1       -0.4932
      4 N           3.8346   -0.5080    0.2852 N.pl3   1  UNL1       -0.3297
      5 N           7.8494    0.8371    0.1363 N.3     1  UNL1       -0.3053
      6 N          -4.3007    0.5615   -0.9581 N.pl3   1  UNL1       -0.3213
      7 N          -1.2368   -2.8480    0.6223 N.pl3   1  UNL1       -0.2951
      8 N          -6.3125   -0.7228    0.5267 N.pl3   1  UNL1       -0.3247
      9 N          -4.7759   -2.3697    1.2183 N.ar    1  UNL1       -0.1307
     10 N          -3.5282   -2.9073    1.2572 N.ar    1  UNL1       -0.1322
     11 C           6.3932    0.8075    0.0122 C.3     1  UNL1        0.0127
     12 C           5.7562    0.5736    1.3838 C.3     1  UNL1       -0.0215
     13 C           5.9539   -0.2952   -0.9551 C.3     1  UNL1       -0.0215
     14 C           4.2323    0.4915    1.2829 C.3     1  UNL1        0.0136
     15 C           4.4303   -0.3702   -1.0513 C.3     1  UNL1        0.0136
     16 C           2.5668   -1.0962    0.3679 C.ar    1  UNL1        0.0333
     17 C           8.4707    1.0337   -1.1733 C.3     1  UNL1       -0.0128
     18 C           8.2630    1.8919    1.0613 C.3     1  UNL1       -0.0128
     19 C           2.3716   -2.3991   -0.0905 C.ar    1  UNL1        0.0029
     20 C           1.4989   -0.3798    0.9084 C.ar    1  UNL1       -0.0387
     21 C           1.1088   -2.9857   -0.0080 C.ar    1  UNL1        0.1429
     22 C           0.2361   -0.9662    0.9909 C.ar    1  UNL1       -0.0352
     23 C           0.0411   -2.2692    0.5327 C.ar    1  UNL1        0.0748
     24 C          -5.7102    0.8576   -1.2117 C.3     1  UNL1        0.0282
     25 C          -4.0127   -0.5891   -0.2242 C.ar    1  UNL1        0.0754
     26 C          -6.5318    0.6229    0.0482 C.3     1  UNL1        0.0263
     27 C          -3.2978    1.2052   -1.7909 C.3     1  UNL1        0.0388
     28 C          -5.0206   -1.2368    0.5125 C.ar    1  UNL1        0.1626
     29 C          -2.5397   -2.2992    0.5831 C.ar    1  UNL1        0.1474
     30 C          -2.7365   -1.1521   -0.1592 C.ar    1  UNL1        0.0047
     31 C          -2.5137    2.2085   -0.9915 C.ar    1  UNL1       -0.0105
     32 C          -1.1759    2.4849   -1.2734 C.ar    1  UNL1        0.0457
     33 C          -3.1569    2.8697    0.0548 C.ar    1  UNL1       -0.0373
     34 C           0.5751   -4.4154   -1.8319 C.3     1  UNL1        0.0789
     35 C          -2.4624    3.8074    0.8189 C.ar    1  UNL1        0.0414
     36 C          -0.4812    3.4225   -0.5091 C.ar    1  UNL1       -0.0417
     37 C          -1.1245    4.0837    0.5370 C.ar    1  UNL1       -0.0420
     38 H           6.0304    1.7702   -0.3775 H       1  UNL1        0.0463
     39 H           5.9747    1.3830    2.0878 H       1  UNL1        0.0295
     40 H           6.1385   -0.3572    1.8241 H       1  UNL1        0.0295
     41 H           6.3435   -1.2671   -0.6237 H       1  UNL1        0.0295
     42 H           6.3218   -0.1232   -1.9719 H       1  UNL1        0.0295
     43 H           3.8447    0.2282    2.2751 H       1  UNL1        0.0464
     44 H           3.8262    1.4737    1.0100 H       1  UNL1        0.0464
     45 H           4.0374    0.5367   -1.5285 H       1  UNL1        0.0464
     46 H           4.1720   -1.2120   -1.7040 H       1  UNL1        0.0464
     47 H           8.3913    0.1416   -1.8021 H       1  UNL1        0.0391
     48 H           8.0575    1.8957   -1.7097 H       1  UNL1        0.0391
     49 H           9.5498    1.1986   -1.0649 H       1  UNL1        0.0391
     50 H           8.0379    1.6375    2.1014 H       1  UNL1        0.0391
     51 H           7.8173    2.8635    0.8187 H       1  UNL1        0.0391
     52 H           9.3530    2.0151    1.0394 H       1  UNL1        0.0391
     53 H           3.1994   -2.9734   -0.5002 H       1  UNL1        0.0673
     54 H           1.6117    0.6404    1.2643 H       1  UNL1        0.0637
     55 H          -0.5695   -0.3898    1.4373 H       1  UNL1        0.0638
     56 H          -6.0710    0.2182   -2.0277 H       1  UNL1        0.0479
     57 H          -5.8374    1.8981   -1.5329 H       1  UNL1        0.0479
     58 H          -6.2487    1.3370    0.8307 H       1  UNL1        0.0477
     59 H          -7.5963    0.7703   -0.1617 H       1  UNL1        0.0477
     60 H          -3.7882    1.7624   -2.6012 H       1  UNL1        0.0513
     61 H          -2.6853    0.4566   -2.3013 H       1  UNL1        0.0513
     62 H          -1.2201   -3.7937    0.9938 H       1  UNL1        0.1537
     63 H          -7.0165   -1.1912    1.0830 H       1  UNL1        0.1476
     64 H          -1.9101   -0.7153   -0.7076 H       1  UNL1        0.0672
     65 H          -4.2030    2.6959    0.2862 H       1  UNL1        0.0636
     66 H           0.4582   -5.4832   -2.0360 H       1  UNL1        0.0660
     67 H           1.3600   -4.0186   -2.4836 H       1  UNL1        0.0660
     68 H          -0.3750   -3.9136   -2.0406 H       1  UNL1        0.0660
     69 H           0.5619    3.6483   -0.7155 H       1  UNL1        0.0633
     70 H          -0.5707    4.8115    1.1245 H       1  UNL1        0.0633
@<TRIPOS>BOND
     1     1    32    1
     2     2    35    1
     3     3    21    1
     4     3    34    1
     5     4    14    1
     6     4    15    1
     7     4    16    1
     8     5    11    1
     9     5    17    1
    10     5    18    1
    11     6    24    1
    12     6    25    1
    13     6    27    1
    14     7    23    1
    15     7    29    1
    16     7    62    1
    17     8    26    1
    18     8    28    1
    19     8    63    1
    20     9    10   ar
    21     9    28   ar
    22    10    29   ar
    23    11    12    1
    24    11    13    1
    25    11    38    1
    26    12    14    1
    27    12    39    1
    28    12    40    1
    29    13    15    1
    30    13    41    1
    31    13    42    1
    32    14    43    1
    33    14    44    1
    34    15    45    1
    35    15    46    1
    36    16    19   ar
    37    16    20   ar
    38    17    47    1
    39    17    48    1
    40    17    49    1
    41    18    50    1
    42    18    51    1
    43    18    52    1
    44    19    21   ar
    45    19    53    1
    46    20    22   ar
    47    20    54    1
    48    21    23   ar
    49    22    23   ar
    50    22    55    1
    51    24    26    1
    52    24    56    1
    53    24    57    1
    54    25    28   ar
    55    25    30   ar
    56    26    58    1
    57    26    59    1
    58    27    31    1
    59    27    60    1
    60    27    61    1
    61    29    30   ar
    62    30    64    1
    63    31    32   ar
    64    31    33   ar
    65    32    36   ar
    66    33    35   ar
    67    33    65    1
    68    34    66    1
    69    34    67    1
    70    34    68    1
    71    35    37   ar
    72    36    37   ar
    73    36    69    1
    74    37    70    1
