@<TRIPOS>MOLECULE
122582679
 71 75 0 0 0
SMALL
GASTEIGER

@<TRIPOS>ATOM
      1 CL         -0.2693    1.9313   -2.5329 Cl      1  UNL1       -0.0832
      2 CL         -4.1368    4.2429    1.7790 Cl      1  UNL1       -0.0835
      3 O           2.4373   -3.3021    0.0568 O.3     1  UNL1       -0.4875
      4 N           6.7854    2.1241   -0.5508 N.3     1  UNL1       -0.3159
      5 N          -3.8649   -0.1276   -1.0193 N.pl3   1  UNL1       -0.3213
      6 N          -0.0993   -2.4723    0.9385 N.pl3   1  UNL1       -0.2951
      7 N          -5.5439   -1.8190    0.4714 N.pl3   1  UNL1       -0.3247
      8 N          -2.3246   -3.1146    1.4792 N.ar    1  UNL1       -0.1322
      9 N          -3.6662   -2.9404    1.3480 N.ar    1  UNL1       -0.1307
     10 C           4.2714    1.1917    0.6256 C.3     1  UNL1       -0.0132
     11 C           4.3270    1.9200   -0.7278 C.3     1  UNL1       -0.0336
     12 C           5.6170    0.5017    0.9050 C.3     1  UNL1       -0.0336
     13 C           5.5394    2.8484   -0.8024 C.3     1  UNL1       -0.0036
     14 C           6.7781    1.4864    0.7660 C.3     1  UNL1       -0.0036
     15 C           3.1024    0.2297    0.7131 C.ar    1  UNL1       -0.0377
     16 C           1.8508    0.6601    1.1537 C.ar    1  UNL1       -0.0450
     17 C           3.2923   -1.1025    0.3460 C.ar    1  UNL1       -0.0144
     18 C           2.2307   -2.0043    0.4191 C.ar    1  UNL1        0.1422
     19 C           0.7892   -0.2419    1.2270 C.ar    1  UNL1       -0.0337
     20 C           0.9791   -1.5740    0.8596 C.ar    1  UNL1        0.0750
     21 C           1.6234    2.0816    1.5516 C.3     1  UNL1       -0.0394
     22 C          -5.2840   -0.2424   -1.3533 C.3     1  UNL1        0.0282
     23 C          -3.3233   -1.1099   -0.1901 C.ar    1  UNL1        0.0754
     24 C          -6.0873   -0.6153   -0.1150 C.3     1  UNL1        0.0263
     25 C          -3.0233    0.7131   -1.8550 C.3     1  UNL1        0.0388
     26 C          -1.4969   -2.3023    0.8037 C.ar    1  UNL1        0.1474
     27 C          -4.1630   -1.9617    0.5499 C.ar    1  UNL1        0.1626
     28 C          -1.9493   -1.2992   -0.0297 C.ar    1  UNL1        0.0047
     29 C           2.8630   -3.5398   -1.2832 C.3     1  UNL1        0.0947
     30 C          -2.5875    1.9385   -1.1005 C.ar    1  UNL1       -0.0105
     31 C           4.2275   -4.2120   -1.2631 C.3     1  UNL1       -0.0281
     32 C           1.8227   -4.3904   -1.9959 C.3     1  UNL1       -0.0281
     33 C          -1.3581    2.5501   -1.3451 C.ar    1  UNL1        0.0457
     34 C          -3.4470    2.4617   -0.1345 C.ar    1  UNL1       -0.0373
     35 C          -3.0768    3.5968    0.5869 C.ar    1  UNL1        0.0414
     36 C          -0.9879    3.6851   -0.6237 C.ar    1  UNL1       -0.0417
     37 C          -1.8474    4.2086    0.3422 C.ar    1  UNL1       -0.0420
     38 H           4.1667    1.9480    1.4140 H       1  UNL1        0.0350
     39 H           4.3780    1.1874   -1.5449 H       1  UNL1        0.0283
     40 H           3.4155    2.5036   -0.8972 H       1  UNL1        0.0283
     41 H           5.6237    0.0650    1.9113 H       1  UNL1        0.0283
     42 H           5.8232   -0.3090    0.1981 H       1  UNL1        0.0283
     43 H           5.5890    3.3032   -1.7978 H       1  UNL1        0.0424
     44 H           5.4345    3.6720   -0.0858 H       1  UNL1        0.0424
     45 H           6.7266    2.2509    1.5506 H       1  UNL1        0.0424
     46 H           7.7264    0.9562    0.9083 H       1  UNL1        0.0424
     47 H           6.8997    1.4051   -1.2657 H       1  UNL1        0.1219
     48 H           4.2430   -1.4695   -0.0174 H       1  UNL1        0.0658
     49 H          -0.1734    0.1016    1.5977 H       1  UNL1        0.0640
     50 H           2.2102    2.3331    2.4408 H       1  UNL1        0.0278
     51 H           1.8696    2.7697    0.7389 H       1  UNL1        0.0278
     52 H           0.5730    2.2618    1.8072 H       1  UNL1        0.0278
     53 H          -5.4095   -1.0040   -2.1337 H       1  UNL1        0.0479
     54 H          -5.6664    0.7028   -1.7563 H       1  UNL1        0.0479
     55 H           0.1485   -3.3538    1.3792 H       1  UNL1        0.1537
     56 H          -6.0545    0.1949    0.6233 H       1  UNL1        0.0477
     57 H          -7.1374   -0.7762   -0.3799 H       1  UNL1        0.0477
     58 H          -3.5952    1.0658   -2.7245 H       1  UNL1        0.0513
     59 H          -2.2024    0.1301   -2.2819 H       1  UNL1        0.0513
     60 H          -1.2390   -0.6879   -0.5739 H       1  UNL1        0.0672
     61 H          -6.1285   -2.4268    1.0310 H       1  UNL1        0.1476
     62 H           2.9518   -2.6005   -1.8461 H       1  UNL1        0.0727
     63 H           4.5857   -4.4136   -2.2773 H       1  UNL1        0.0265
     64 H           4.9668   -3.5870   -0.7527 H       1  UNL1        0.0265
     65 H           4.1862   -5.1588   -0.7132 H       1  UNL1        0.0265
     66 H           0.8530   -3.8809   -2.0040 H       1  UNL1        0.0265
     67 H           2.1161   -4.5980   -3.0294 H       1  UNL1        0.0265
     68 H           1.6730   -5.3425   -1.4751 H       1  UNL1        0.0265
     69 H          -4.4203    2.0245    0.0646 H       1  UNL1        0.0636
     70 H          -0.0329    4.1729   -0.8020 H       1  UNL1        0.0633
     71 H          -1.5455    5.0931    0.8971 H       1  UNL1        0.0633
@<TRIPOS>BOND
     1     1    33    1
     2     2    35    1
     3     3    18    1
     4     3    29    1
     5     4    13    1
     6     4    14    1
     7     4    47    1
     8     5    22    1
     9     5    23    1
    10     5    25    1
    11     6    20    1
    12     6    26    1
    13     6    55    1
    14     7    24    1
    15     7    27    1
    16     7    61    1
    17     8     9   ar
    18     8    26   ar
    19     9    27   ar
    20    10    11    1
    21    10    12    1
    22    10    15    1
    23    10    38    1
    24    11    13    1
    25    11    39    1
    26    11    40    1
    27    12    14    1
    28    12    41    1
    29    12    42    1
    30    13    43    1
    31    13    44    1
    32    14    45    1
    33    14    46    1
    34    15    16   ar
    35    15    17   ar
    36    16    19   ar
    37    16    21    1
    38    17    18   ar
    39    17    48    1
    40    18    20   ar
    41    19    20   ar
    42    19    49    1
    43    21    50    1
    44    21    51    1
    45    21    52    1
    46    22    24    1
    47    22    53    1
    48    22    54    1
    49    23    27   ar
    50    23    28   ar
    51    24    56    1
    52    24    57    1
    53    25    30    1
    54    25    58    1
    55    25    59    1
    56    26    28   ar
    57    28    60    1
    58    29    31    1
    59    29    32    1
    60    29    62    1
    61    30    33   ar
    62    30    34   ar
    63    31    63    1
    64    31    64    1
    65    31    65    1
    66    32    66    1
    67    32    67    1
    68    32    68    1
    69    33    36   ar
    70    34    35   ar
    71    34    69    1
    72    35    37   ar
    73    36    37   ar
    74    36    70    1
    75    37    71    1
