@<TRIPOS>MOLECULE
122582663
 65 69 0 0 0
SMALL
GASTEIGER

@<TRIPOS>ATOM
      1 CL         -3.9877   -3.0427    2.4144 Cl      1  UNL1       -0.0832
      2 CL         -7.0127   -1.9305   -2.9245 Cl      1  UNL1       -0.0835
      3 O          -0.1555   -0.5329    0.7827 O.2     1  UNL1       -0.2681
      4 N           6.2971   -0.4441   -0.2724 N.pl3   1  UNL1       -0.3269
      5 N           9.0031   -1.3244   -0.4122 N.3     1  UNL1       -0.3081
      6 N          -5.0322    0.9692    0.9065 N.pl3   1  UNL1       -0.3213
      7 N          -4.8612    3.4745   -0.3568 N.pl3   1  UNL1       -0.3247
      8 N           0.9746    1.2423   -0.2663 N.am    1  UNL1       -0.2802
      9 N          -2.5312    3.2164   -0.5934 N.ar    1  UNL1       -0.1318
     10 N          -1.3811    2.5061   -0.4519 N.ar    1  UNL1       -0.1427
     11 C           8.6850   -0.0870    0.3192 C.3     1  UNL1        0.0292
     12 C           7.3790    0.5462   -0.2143 C.3     1  UNL1        0.0300
     13 C           6.6216   -1.6908   -0.9732 C.3     1  UNL1        0.0248
     14 C           7.9085   -2.2907   -0.4149 C.3     1  UNL1        0.0122
     15 C           9.8481    0.8901    0.0693 C.3     1  UNL1       -0.0456
     16 C           8.5888   -0.3412    1.8369 C.3     1  UNL1       -0.0456
     17 C           4.9639   -0.0217   -0.2717 C.ar    1  UNL1        0.0299
     18 C           4.6226    1.2129   -0.8241 C.ar    1  UNL1       -0.0389
     19 C           3.9753   -0.8349    0.2825 C.ar    1  UNL1       -0.0389
     20 C          -6.1282    1.9306    1.0194 C.3     1  UNL1        0.0282
     21 C           3.2929    1.6341   -0.8225 C.ar    1  UNL1       -0.0387
     22 C           2.6456   -0.4138    0.2843 C.ar    1  UNL1       -0.0387
     23 C           2.3044    0.8207   -0.2682 C.ar    1  UNL1        0.0338
     24 C          -3.8030    1.4529    0.4585 C.ar    1  UNL1        0.0743
     25 C          -6.1525    2.8458   -0.1968 C.3     1  UNL1        0.0263
     26 C          -5.1392   -0.2897    1.6256 C.3     1  UNL1        0.0388
     27 C          -3.7156    2.7098   -0.1667 C.ar    1  UNL1        0.1625
     28 C          -2.6110    0.7361    0.5815 C.ar    1  UNL1       -0.0049
     29 C          -5.3179   -1.4322    0.6647 C.ar    1  UNL1       -0.0105
     30 C          -1.4353    1.2931    0.1200 C.ar    1  UNL1        0.1498
     31 C          -0.1438    0.5671    0.2408 C.2     1  UNL1        0.2684
     32 C          -4.8275   -2.7078    0.9442 C.ar    1  UNL1        0.0457
     33 C          -5.9938   -1.1916   -0.5316 C.ar    1  UNL1       -0.0373
     34 C          -6.1794   -2.2266   -1.4481 C.ar    1  UNL1        0.0414
     35 C          -5.0129   -3.7427    0.0275 C.ar    1  UNL1       -0.0417
     36 C          -5.6887   -3.5021   -1.1685 C.ar    1  UNL1       -0.0420
     37 H           7.1008    1.3851    0.4375 H       1  UNL1        0.0482
     38 H           7.5437    0.9511   -1.2221 H       1  UNL1        0.0482
     39 H           9.8373   -1.7577   -0.0166 H       1  UNL1        0.1225
     40 H           6.7345   -1.4824   -2.0450 H       1  UNL1        0.0476
     41 H           5.8253   -2.4374   -0.8741 H       1  UNL1        0.0476
     42 H           7.7385   -2.6810    0.5951 H       1  UNL1        0.0440
     43 H           8.1979   -3.1477   -1.0333 H       1  UNL1        0.0440
     44 H          10.7963    0.4920    0.4500 H       1  UNL1        0.0248
     45 H           9.9787    1.0932   -1.0003 H       1  UNL1        0.0248
     46 H           9.6690    1.8502    0.5671 H       1  UNL1        0.0248
     47 H           8.4636    0.6017    2.3820 H       1  UNL1        0.0248
     48 H           7.7390   -0.9793    2.1003 H       1  UNL1        0.0248
     49 H           9.4979   -0.8210    2.2178 H       1  UNL1        0.0248
     50 H           5.3638    1.8651   -1.2771 H       1  UNL1        0.0637
     51 H           4.2246   -1.7936    0.7306 H       1  UNL1        0.0637
     52 H          -5.9982    2.5183    1.9373 H       1  UNL1        0.0479
     53 H          -7.0921    1.4140    1.0975 H       1  UNL1        0.0479
     54 H           3.0404    2.5970   -1.2592 H       1  UNL1        0.0637
     55 H           1.9402   -1.0976    0.7346 H       1  UNL1        0.0637
     56 H          -6.3935    2.2762   -1.1023 H       1  UNL1        0.0477
     57 H          -6.9236    3.6138   -0.0767 H       1  UNL1        0.0477
     58 H          -6.0291   -0.2770    2.2700 H       1  UNL1        0.0513
     59 H          -4.2985   -0.4085    2.3151 H       1  UNL1        0.0513
     60 H          -4.7787    4.3651   -0.8305 H       1  UNL1        0.1476
     61 H          -2.5911   -0.2512    1.0290 H       1  UNL1        0.0661
     62 H           0.8063    2.1554   -0.6836 H       1  UNL1        0.1552
     63 H          -6.4086   -0.2175   -0.7701 H       1  UNL1        0.0636
     64 H          -4.6368   -4.7423    0.2305 H       1  UNL1        0.0633
     65 H          -5.8258   -4.3180   -1.8736 H       1  UNL1        0.0633
@<TRIPOS>BOND
     1     1    32    1
     2     2    34    1
     3     3    31    2
     4     4    12    1
     5     4    13    1
     6     4    17    1
     7     5    11    1
     8     5    14    1
     9     5    39    1
    10     6    20    1
    11     6    24    1
    12     6    26    1
    13     7    25    1
    14     7    27    1
    15     7    60    1
    16     8    23    1
    17     8    31   am
    18     8    62    1
    19     9    10   ar
    20     9    27   ar
    21    10    30   ar
    22    11    12    1
    23    11    15    1
    24    11    16    1
    25    12    37    1
    26    12    38    1
    27    13    14    1
    28    13    40    1
    29    13    41    1
    30    14    42    1
    31    14    43    1
    32    15    44    1
    33    15    45    1
    34    15    46    1
    35    16    47    1
    36    16    48    1
    37    16    49    1
    38    17    18   ar
    39    17    19   ar
    40    18    21   ar
    41    18    50    1
    42    19    22   ar
    43    19    51    1
    44    20    25    1
    45    20    52    1
    46    20    53    1
    47    21    23   ar
    48    21    54    1
    49    22    23   ar
    50    22    55    1
    51    24    27   ar
    52    24    28   ar
    53    25    56    1
    54    25    57    1
    55    26    29    1
    56    26    58    1
    57    26    59    1
    58    28    30   ar
    59    28    61    1
    60    29    32   ar
    61    29    33   ar
    62    30    31    1
    63    32    35   ar
    64    33    34   ar
    65    33    63    1
    66    34    36   ar
    67    35    36   ar
    68    35    64    1
    69    36    65    1
