@<TRIPOS>MOLECULE
122582653
 74 78 0 0 0
SMALL
GASTEIGER

@<TRIPOS>ATOM
      1 CL         -4.7889    3.1433   -2.4095 Cl      1  UNL1       -0.0832
      2 CL         -7.7883    2.2604    2.9865 Cl      1  UNL1       -0.0835
      3 O          -1.1212    0.3609   -0.8430 O.2     1  UNL1       -0.2681
      4 N           9.3647    0.9838   -0.4065 N.3     1  UNL1       -0.2999
      5 N           5.3272   -0.1976    0.0962 N.pl3   1  UNL1       -0.3298
      6 N          -6.0962   -0.7800   -0.8735 N.pl3   1  UNL1       -0.3213
      7 N          -0.1258   -1.4962    0.1897 N.am    1  UNL1       -0.2802
      8 N          -6.0857   -3.2899    0.3922 N.pl3   1  UNL1       -0.3247
      9 N          -3.7391   -3.2030    0.5854 N.ar    1  UNL1       -0.1318
     10 N          -2.5431   -2.5788    0.4212 N.ar    1  UNL1       -0.1427
     11 C           8.1347    0.4794    0.2013 C.3     1  UNL1        0.0132
     12 C           7.0507    1.5609    0.2086 C.3     1  UNL1       -0.0215
     13 C           7.6354   -0.7455   -0.5680 C.3     1  UNL1       -0.0215
     14 C           5.7431    1.0275    0.7934 C.3     1  UNL1        0.0136
     15 C           6.3231   -1.2720    0.0149 C.3     1  UNL1        0.0136
     16 C          10.4984    0.1307   -0.0508 C.3     1  UNL1        0.0048
     17 C           9.6133    2.3635    0.0104 C.3     1  UNL1       -0.0122
     18 C           3.9654   -0.5219    0.1205 C.ar    1  UNL1        0.0298
     19 C          11.6167    0.3209   -1.0707 C.3     1  UNL1       -0.0497
     20 C          10.9822    0.4547    1.3598 C.3     1  UNL1       -0.0497
     21 C           3.5450   -1.7279    0.6814 C.ar    1  UNL1       -0.0389
     22 C           3.0290    0.3609   -0.4177 C.ar    1  UNL1       -0.0389
     23 C           2.1883   -2.0508    0.7046 C.ar    1  UNL1       -0.0387
     24 C           1.6723    0.0380   -0.3947 C.ar    1  UNL1       -0.0387
     25 C           1.2520   -1.1679    0.1665 C.ar    1  UNL1        0.0338
     26 C          -7.2617   -1.6587   -0.9641 C.3     1  UNL1        0.0282
     27 C          -4.8976   -1.3521   -0.4470 C.ar    1  UNL1        0.0743
     28 C          -7.3303   -2.5686    0.2544 C.3     1  UNL1        0.0263
     29 C          -6.1241    0.4827   -1.5935 C.3     1  UNL1        0.0388
     30 C          -4.8909   -2.6114    0.1794 C.ar    1  UNL1        0.1625
     31 C          -3.6589   -0.7246   -0.5934 C.ar    1  UNL1       -0.0049
     32 C          -1.2118   -0.7513   -0.2950 C.2     1  UNL1        0.2684
     33 C          -2.5188   -1.3658   -0.1523 C.ar    1  UNL1        0.1498
     34 C          -6.2010    1.6362   -0.6320 C.ar    1  UNL1       -0.0105
     35 C          -5.6237    2.8720   -0.9234 C.ar    1  UNL1        0.0457
     36 C          -6.8704    1.4468    0.5770 C.ar    1  UNL1       -0.0373
     37 C          -6.9628    2.4934    1.4944 C.ar    1  UNL1        0.0414
     38 C          -5.7159    3.9187   -0.0058 C.ar    1  UNL1       -0.0417
     39 C          -6.3854    3.7293    1.2031 C.ar    1  UNL1       -0.0420
     40 H           8.2926    0.1878    1.2473 H       1  UNL1        0.0463
     41 H           7.3166    2.4271    0.8238 H       1  UNL1        0.0295
     42 H           6.8597    1.9178   -0.8127 H       1  UNL1        0.0295
     43 H           7.4740   -0.4793   -1.6218 H       1  UNL1        0.0295
     44 H           8.3548   -1.5698   -0.5590 H       1  UNL1        0.0295
     45 H           5.8686    0.8088    1.8616 H       1  UNL1        0.0464
     46 H           4.9884    1.8188    0.7162 H       1  UNL1        0.0464
     47 H           5.9699   -2.0824   -0.6351 H       1  UNL1        0.0464
     48 H           6.5039   -1.6915    1.0125 H       1  UNL1        0.0464
     49 H          10.2374   -0.9312   -0.0866 H       1  UNL1        0.0457
     50 H          10.6048    2.7167   -0.2942 H       1  UNL1        0.0391
     51 H           9.5152    2.5390    1.0886 H       1  UNL1        0.0391
     52 H           8.9388    3.0516   -0.5138 H       1  UNL1        0.0391
     53 H          12.4281   -0.3896   -0.8752 H       1  UNL1        0.0245
     54 H          11.2563    0.1302   -2.0880 H       1  UNL1        0.0245
     55 H          12.0581    1.3219   -1.0489 H       1  UNL1        0.0245
     56 H          11.4983    1.4182    1.4363 H       1  UNL1        0.0245
     57 H          11.7232   -0.2976    1.6598 H       1  UNL1        0.0245
     58 H          10.1947    0.4166    2.1179 H       1  UNL1        0.0245
     59 H           4.2446   -2.4318    1.1231 H       1  UNL1        0.0637
     60 H           3.3392    1.2982   -0.8727 H       1  UNL1        0.0637
     61 H           1.8733   -2.9921    1.1477 H       1  UNL1        0.0637
     62 H           1.0092    0.7698   -0.8333 H       1  UNL1        0.0637
     63 H          -7.1919   -2.2552   -1.8829 H       1  UNL1        0.0479
     64 H          -8.1864   -1.0730   -1.0256 H       1  UNL1        0.0479
     65 H          -7.5122   -1.9819    1.1628 H       1  UNL1        0.0477
     66 H          -8.1576   -3.2781    0.1503 H       1  UNL1        0.0477
     67 H          -7.0243    0.5346   -2.2214 H       1  UNL1        0.0513
     68 H          -5.2898    0.5390   -2.2986 H       1  UNL1        0.0513
     69 H          -0.3419   -2.3961    0.6140 H       1  UNL1        0.1552
     70 H          -6.0600   -4.1838    0.8663 H       1  UNL1        0.1476
     71 H          -3.5760    0.2583   -1.0436 H       1  UNL1        0.0661
     72 H          -7.3509    0.5058    0.8253 H       1  UNL1        0.0636
     73 H          -5.2714    4.8878   -0.2180 H       1  UNL1        0.0633
     74 H          -6.4493    4.5537    1.9086 H       1  UNL1        0.0633
@<TRIPOS>BOND
     1     1    35    1
     2     2    37    1
     3     3    32    2
     4     4    11    1
     5     4    16    1
     6     4    17    1
     7     5    14    1
     8     5    15    1
     9     5    18    1
    10     6    26    1
    11     6    27    1
    12     6    29    1
    13     7    25    1
    14     7    32   am
    15     7    69    1
    16     8    28    1
    17     8    30    1
    18     8    70    1
    19     9    10   ar
    20     9    30   ar
    21    10    33   ar
    22    11    12    1
    23    11    13    1
    24    11    40    1
    25    12    14    1
    26    12    41    1
    27    12    42    1
    28    13    15    1
    29    13    43    1
    30    13    44    1
    31    14    45    1
    32    14    46    1
    33    15    47    1
    34    15    48    1
    35    16    19    1
    36    16    20    1
    37    16    49    1
    38    17    50    1
    39    17    51    1
    40    17    52    1
    41    18    21   ar
    42    18    22   ar
    43    19    53    1
    44    19    54    1
    45    19    55    1
    46    20    56    1
    47    20    57    1
    48    20    58    1
    49    21    23   ar
    50    21    59    1
    51    22    24   ar
    52    22    60    1
    53    23    25   ar
    54    23    61    1
    55    24    25   ar
    56    24    62    1
    57    26    28    1
    58    26    63    1
    59    26    64    1
    60    27    30   ar
    61    27    31   ar
    62    28    65    1
    63    28    66    1
    64    29    34    1
    65    29    67    1
    66    29    68    1
    67    31    33   ar
    68    31    71    1
    69    32    33    1
    70    34    35   ar
    71    34    36   ar
    72    35    38   ar
    73    36    37   ar
    74    36    72    1
    75    37    39   ar
    76    38    39   ar
    77    38    73    1
    78    39    74    1
