@<TRIPOS>MOLECULE
122582664
 73 78 0 0 0
SMALL
GASTEIGER

@<TRIPOS>ATOM
      1 CL         -4.9794   -3.2100    2.4067 Cl      1  UNL1       -0.0832
      2 CL         -8.0776   -2.3774   -2.9411 Cl      1  UNL1       -0.0835
      3 O          11.8599   -1.2254    0.0996 O.3     1  UNL1       -0.3772
      4 O          -1.4141   -0.3146    0.8092 O.2     1  UNL1       -0.2681
      5 N           9.0779   -0.6368    0.2238 N.3     1  UNL1       -0.2950
      6 N           5.0022    0.4327   -0.2150 N.pl3   1  UNL1       -0.3298
      7 N          -6.4185    0.6846    0.9161 N.pl3   1  UNL1       -0.3213
      8 N          -0.4862    1.5768   -0.2243 N.am    1  UNL1       -0.2802
      9 N          -6.4967    3.2020   -0.3322 N.pl3   1  UNL1       -0.3247
     10 N          -4.1514    3.1828   -0.5584 N.ar    1  UNL1       -0.1318
     11 N          -2.9360    2.5919   -0.4149 N.ar    1  UNL1       -0.1427
     12 C           7.8260   -0.1637   -0.3634 C.3     1  UNL1        0.0134
     13 C           6.7730   -1.2754   -0.3632 C.3     1  UNL1       -0.0215
     14 C           7.3030    1.0415    0.4212 C.3     1  UNL1       -0.0215
     15 C           5.4428   -0.7756   -0.9262 C.3     1  UNL1        0.0136
     16 C           5.9683    1.5343   -0.1399 C.3     1  UNL1        0.0136
     17 C           9.5836   -1.8106   -0.5014 C.3     1  UNL1        0.0227
     18 C          10.0895    0.4291    0.2244 C.3     1  UNL1        0.0227
     19 C          10.8955   -2.2784    0.1219 C.3     1  UNL1        0.0604
     20 C          11.3901   -0.0914    0.8296 C.3     1  UNL1        0.0604
     21 C           3.6316    0.7184   -0.2182 C.ar    1  UNL1        0.0298
     22 C           3.1694    1.9156   -0.7649 C.ar    1  UNL1       -0.0389
     23 C           2.7281   -0.1941    0.3268 C.ar    1  UNL1       -0.0389
     24 C           1.8039    2.2001   -0.7671 C.ar    1  UNL1       -0.0387
     25 C           1.3627    0.0904    0.3246 C.ar    1  UNL1       -0.0387
     26 C           0.9006    1.2875   -0.2223 C.ar    1  UNL1        0.0338
     27 C          -7.6068    1.5292    1.0288 C.3     1  UNL1        0.0282
     28 C          -5.2426    1.2931    0.4770 C.ar    1  UNL1        0.0743
     29 C          -7.7183    2.4447   -0.1824 C.3     1  UNL1        0.0263
     30 C          -6.4005   -0.5831    1.6277 C.3     1  UNL1        0.0388
     31 C          -5.2803    2.5562   -0.1405 C.ar    1  UNL1        0.1625
     32 C          -3.9848    0.7001    0.6022 C.ar    1  UNL1       -0.0049
     33 C          -1.5437    0.7981    0.2702 C.2     1  UNL1        0.2684
     34 C          -2.8695    1.3762    0.1498 C.ar    1  UNL1        0.1498
     35 C          -6.4583   -1.7320    0.6594 C.ar    1  UNL1       -0.0105
     36 C          -5.8422   -2.9529    0.9342 C.ar    1  UNL1        0.0457
     37 C          -7.1496   -1.5538   -0.5390 C.ar    1  UNL1       -0.0373
     38 C          -7.2252   -2.5966   -1.4622 C.ar    1  UNL1        0.0414
     39 C          -5.9176   -3.9957    0.0108 C.ar    1  UNL1       -0.0417
     40 C          -6.6089   -3.8175   -1.1874 C.ar    1  UNL1       -0.0420
     41 H           7.9965    0.1485   -1.4042 H       1  UNL1        0.0463
     42 H           7.0626   -2.1249   -0.9890 H       1  UNL1        0.0295
     43 H           6.6174   -1.6515    0.6567 H       1  UNL1        0.0295
     44 H           7.1753    0.7785    1.4799 H       1  UNL1        0.0295
     45 H           7.9780    1.9010    0.3736 H       1  UNL1        0.0295
     46 H           5.5477   -0.5462   -1.9943 H       1  UNL1        0.0464
     47 H           4.7122   -1.5886   -0.8444 H       1  UNL1        0.0464
     48 H           5.6013    2.3310    0.5195 H       1  UNL1        0.0464
     49 H           6.1226    1.9643   -1.1376 H       1  UNL1        0.0464
     50 H           9.7437   -1.5713   -1.5605 H       1  UNL1        0.0449
     51 H           8.9064   -2.6657   -0.4336 H       1  UNL1        0.0449
     52 H           9.8012    1.2804    0.8456 H       1  UNL1        0.0449
     53 H          10.2759    0.7858   -0.7967 H       1  UNL1        0.0449
     54 H          10.7542   -2.6231    1.1537 H       1  UNL1        0.0572
     55 H          11.3048   -3.1152   -0.4533 H       1  UNL1        0.0572
     56 H          11.2664   -0.3620    1.8855 H       1  UNL1        0.0572
     57 H          12.1633    0.6818    0.7748 H       1  UNL1        0.0572
     58 H           3.8426    2.6420   -1.2114 H       1  UNL1        0.0637
     59 H           3.0710   -1.1253    0.7709 H       1  UNL1        0.0637
     60 H           1.4563    3.1350   -1.1993 H       1  UNL1        0.0637
     61 H           0.7266   -0.6628    0.7672 H       1  UNL1        0.0637
     62 H          -7.5411    2.1215    1.9506 H       1  UNL1        0.0479
     63 H          -8.5137    0.9172    1.0992 H       1  UNL1        0.0479
     64 H          -7.8962    1.8590   -1.0922 H       1  UNL1        0.0477
     65 H          -8.5638    3.1298   -0.0619 H       1  UNL1        0.0477
     66 H          -0.7336    2.4729   -0.6393 H       1  UNL1        0.1552
     67 H          -7.2901   -0.6646    2.2675 H       1  UNL1        0.0513
     68 H          -5.5553   -0.6203    2.3208 H       1  UNL1        0.0513
     69 H          -6.5028    4.0992   -0.8005 H       1  UNL1        0.1476
     70 H          -3.8678   -0.2830    1.0444 H       1  UNL1        0.0661
     71 H          -7.6600   -0.6253   -0.7741 H       1  UNL1        0.0636
     72 H          -5.4430   -4.9531    0.2101 H       1  UNL1        0.0633
     73 H          -6.6593   -4.6387   -1.8977 H       1  UNL1        0.0633
@<TRIPOS>BOND
     1     1    36    1
     2     2    38    1
     3     3    19    1
     4     3    20    1
     5     4    33    2
     6     5    12    1
     7     5    17    1
     8     5    18    1
     9     6    15    1
    10     6    16    1
    11     6    21    1
    12     7    27    1
    13     7    28    1
    14     7    30    1
    15     8    26    1
    16     8    33   am
    17     8    66    1
    18     9    29    1
    19     9    31    1
    20     9    69    1
    21    10    11   ar
    22    10    31   ar
    23    11    34   ar
    24    12    13    1
    25    12    14    1
    26    12    41    1
    27    13    15    1
    28    13    42    1
    29    13    43    1
    30    14    16    1
    31    14    44    1
    32    14    45    1
    33    15    46    1
    34    15    47    1
    35    16    48    1
    36    16    49    1
    37    17    19    1
    38    17    50    1
    39    17    51    1
    40    18    20    1
    41    18    52    1
    42    18    53    1
    43    19    54    1
    44    19    55    1
    45    20    56    1
    46    20    57    1
    47    21    22   ar
    48    21    23   ar
    49    22    24   ar
    50    22    58    1
    51    23    25   ar
    52    23    59    1
    53    24    26   ar
    54    24    60    1
    55    25    26   ar
    56    25    61    1
    57    27    29    1
    58    27    62    1
    59    27    63    1
    60    28    31   ar
    61    28    32   ar
    62    29    64    1
    63    29    65    1
    64    30    35    1
    65    30    67    1
    66    30    68    1
    67    32    34   ar
    68    32    70    1
    69    33    34    1
    70    35    36   ar
    71    35    37   ar
    72    36    39   ar
    73    37    38   ar
    74    37    71    1
    75    38    40   ar
    76    39    40   ar
    77    39    72    1
    78    40    73    1
