@<TRIPOS>MOLECULE
122582660
 68 72 0 0 0
SMALL
GASTEIGER

@<TRIPOS>ATOM
      1 CL         -4.2310    3.1557   -2.3555 Cl      1  UNL1       -0.0832
      2 CL         -7.2569    2.0944    2.9934 Cl      1  UNL1       -0.0835
      3 O          -0.5116    0.4315   -0.8090 O.2     1  UNL1       -0.2681
      4 N           8.7008    0.6948    0.4265 N.3     1  UNL1       -0.2969
      5 N           5.9389    0.0088    0.1804 N.pl3   1  UNL1       -0.3274
      6 N          -5.4571   -0.8275   -0.9093 N.pl3   1  UNL1       -0.3213
      7 N          -5.3976   -3.3610    0.3069 N.pl3   1  UNL1       -0.3247
      8 N           0.5189   -1.4214    0.1965 N.am    1  UNL1       -0.2802
      9 N          -3.0556   -3.2218    0.5242 N.ar    1  UNL1       -0.1318
     10 N          -1.8735   -2.5660    0.3836 N.ar    1  UNL1       -0.1427
     11 C           7.6762    1.7455    0.3808 C.3     1  UNL1        0.0149
     12 C           8.2885   -0.4411   -0.4068 C.3     1  UNL1        0.0149
     13 C           6.3338    1.2260    0.9005 C.3     1  UNL1        0.0250
     14 C           6.9657   -1.0335    0.0857 C.3     1  UNL1        0.0250
     15 C           9.9914    1.2175   -0.0207 C.3     1  UNL1        0.0049
     16 C           4.5859   -0.3483    0.1853 C.ar    1  UNL1        0.0299
     17 C          11.1116    0.3339    0.5192 C.3     1  UNL1       -0.0497
     18 C          10.0347    1.2873   -1.5446 C.3     1  UNL1       -0.0497
     19 C           4.1896   -1.5748    0.7185 C.ar    1  UNL1       -0.0389
     20 C           3.6334    0.5223   -0.3443 C.ar    1  UNL1       -0.0389
     21 C          -6.6002   -1.7319   -1.0282 C.3     1  UNL1        0.0282
     22 C          -4.2490   -1.3790   -0.4827 C.ar    1  UNL1        0.0743
     23 C          -6.6579   -2.6671    0.1715 C.3     1  UNL1        0.0263
     24 C           2.8410   -1.9306    0.7223 C.ar    1  UNL1       -0.0387
     25 C           2.2847    0.1666   -0.3406 C.ar    1  UNL1       -0.0387
     26 C          -5.5089    0.4482   -1.6045 C.3     1  UNL1        0.0388
     27 C           1.8885   -1.0598    0.1928 C.ar    1  UNL1        0.0338
     28 C          -4.2176   -2.6500    0.1189 C.ar    1  UNL1        0.1625
     29 C          -3.0246   -0.7192   -0.6050 C.ar    1  UNL1       -0.0049
     30 C          -5.6224    1.5802   -0.6214 C.ar    1  UNL1       -0.0105
     31 C          -1.8734   -1.3416   -0.1657 C.ar    1  UNL1        0.1498
     32 C          -0.5803   -0.6933   -0.2838 C.2     1  UNL1        0.2684
     33 C          -5.0724    2.8351   -0.8830 C.ar    1  UNL1        0.0457
     34 C          -6.2979    1.3509    0.5772 C.ar    1  UNL1       -0.0373
     35 C          -6.4238    2.3766    1.5141 C.ar    1  UNL1        0.0414
     36 C          -5.1981    3.8608    0.0540 C.ar    1  UNL1       -0.0417
     37 C          -5.8738    3.6315    1.2525 C.ar    1  UNL1       -0.0420
     38 H           7.5309    2.1333   -0.6346 H       1  UNL1        0.0442
     39 H           7.9763    2.5909    1.0120 H       1  UNL1        0.0442
     40 H           8.1148   -0.1605   -1.4530 H       1  UNL1        0.0442
     41 H           9.0325   -1.2448   -0.3901 H       1  UNL1        0.0442
     42 H           6.4054    1.0023    1.9729 H       1  UNL1        0.0476
     43 H           5.5919    2.0249    0.7874 H       1  UNL1        0.0476
     44 H           6.6592   -1.8173   -0.6186 H       1  UNL1        0.0476
     45 H           7.1161   -1.5000    1.0678 H       1  UNL1        0.0476
     46 H          10.1526    2.2220    0.3916 H       1  UNL1        0.0457
     47 H          11.1019   -0.6759    0.0970 H       1  UNL1        0.0245
     48 H          11.0524    0.2469    1.6100 H       1  UNL1        0.0245
     49 H          12.0864    0.7737    0.2796 H       1  UNL1        0.0245
     50 H          10.1314    0.3082   -2.0271 H       1  UNL1        0.0245
     51 H           9.1916    1.8278   -1.9849 H       1  UNL1        0.0245
     52 H          10.9320    1.8452   -1.8427 H       1  UNL1        0.0245
     53 H           4.9021   -2.2711    1.1516 H       1  UNL1        0.0637
     54 H           3.9250    1.4759   -0.7772 H       1  UNL1        0.0637
     55 H          -6.5078   -2.3082   -1.9578 H       1  UNL1        0.0479
     56 H          -7.5382   -1.1674   -1.0870 H       1  UNL1        0.0479
     57 H          -7.4669   -3.3940    0.0456 H       1  UNL1        0.0477
     58 H          -6.8621   -2.1031    1.0895 H       1  UNL1        0.0477
     59 H           2.5448   -2.8879    1.1436 H       1  UNL1        0.0637
     60 H           1.6081    0.8910   -0.7709 H       1  UNL1        0.0637
     61 H          -6.4045    0.4910   -2.2398 H       1  UNL1        0.0513
     62 H          -4.6700    0.5385   -2.3005 H       1  UNL1        0.0513
     63 H          -5.3546   -4.2632    0.7637 H       1  UNL1        0.1476
     64 H          -2.9613    0.2741   -1.0350 H       1  UNL1        0.0661
     65 H           0.3207   -2.3345    0.6009 H       1  UNL1        0.1552
     66 H          -6.7578    0.3940    0.8024 H       1  UNL1        0.0636
     67 H          -4.7753    4.8443   -0.1348 H       1  UNL1        0.0633
     68 H          -5.9640    4.4400    1.9735 H       1  UNL1        0.0633
@<TRIPOS>BOND
     1     1    33    1
     2     2    35    1
     3     3    32    2
     4     4    11    1
     5     4    12    1
     6     4    15    1
     7     5    13    1
     8     5    14    1
     9     5    16    1
    10     6    21    1
    11     6    22    1
    12     6    26    1
    13     7    23    1
    14     7    28    1
    15     7    63    1
    16     8    27    1
    17     8    32   am
    18     8    65    1
    19     9    10   ar
    20     9    28   ar
    21    10    31   ar
    22    11    13    1
    23    11    38    1
    24    11    39    1
    25    12    14    1
    26    12    40    1
    27    12    41    1
    28    13    42    1
    29    13    43    1
    30    14    44    1
    31    14    45    1
    32    15    17    1
    33    15    18    1
    34    15    46    1
    35    16    19   ar
    36    16    20   ar
    37    17    47    1
    38    17    48    1
    39    17    49    1
    40    18    50    1
    41    18    51    1
    42    18    52    1
    43    19    24   ar
    44    19    53    1
    45    20    25   ar
    46    20    54    1
    47    21    23    1
    48    21    55    1
    49    21    56    1
    50    22    28   ar
    51    22    29   ar
    52    23    57    1
    53    23    58    1
    54    24    27   ar
    55    24    59    1
    56    25    27   ar
    57    25    60    1
    58    26    30    1
    59    26    61    1
    60    26    62    1
    61    29    31   ar
    62    29    64    1
    63    30    33   ar
    64    30    34   ar
    65    31    32    1
    66    33    36   ar
    67    34    35   ar
    68    34    66    1
    69    35    37   ar
    70    36    37   ar
    71    36    67    1
    72    37    68    1
