@<TRIPOS>MOLECULE
145159905
 70 74 0 0 0
SMALL
GASTEIGER

@<TRIPOS>ATOM
      1 CL         -4.9283    2.0851   -3.1962 Cl      1  UNL1       -0.0832
      2 CL         -6.7804    3.4020    2.6113 Cl      1  UNL1       -0.0835
      3 O           5.9943   -1.5367   -2.5078 O.2     1  UNL1       -0.2700
      4 O          -1.0009   -0.1851   -1.4444 O.2     1  UNL1       -0.2681
      5 N           6.3045    0.2182   -0.9942 N.am    1  UNL1       -0.2974
      6 N           9.0253    1.1947    2.0787 N.3     1  UNL1       -0.3053
      7 N          -5.8729   -0.9279   -0.1155 N.pl3   1  UNL1       -0.3213
      8 N          -5.5908   -2.8099    1.9533 N.pl3   1  UNL1       -0.3247
      9 N           0.2151   -1.6057   -0.0187 N.am    1  UNL1       -0.2802
     10 N          -3.2537   -2.8155    1.6543 N.ar    1  UNL1       -0.1318
     11 N          -2.1194   -2.3730    1.0505 N.ar    1  UNL1       -0.1427
     12 C           8.1621    1.3482    0.9101 C.3     1  UNL1        0.0127
     13 C           8.6298    0.4164   -0.2166 C.3     1  UNL1       -0.0214
     14 C           6.7047    1.0493    1.2891 C.3     1  UNL1       -0.0214
     15 C           7.6810    0.4838   -1.4127 C.3     1  UNL1        0.0164
     16 C           5.8006    1.1096    0.0591 C.3     1  UNL1        0.0164
     17 C           5.5729   -0.7899   -1.6258 C.2     1  UNL1        0.2466
     18 C           8.6197    2.1161    3.1403 C.3     1  UNL1       -0.0128
     19 C          10.4245    1.4195    1.7155 C.3     1  UNL1       -0.0128
     20 C           4.1817   -1.0018   -1.2073 C.ar    1  UNL1        0.0370
     21 C          -7.0263   -1.7008    0.3432 C.3     1  UNL1        0.0282
     22 C          -4.6090   -1.3867    0.2558 C.ar    1  UNL1        0.0743
     23 C          -6.8431   -2.1053    1.7993 C.3     1  UNL1        0.0263
     24 C           3.8908   -1.8944   -0.1757 C.ar    1  UNL1       -0.0479
     25 C           3.1503   -0.3103   -1.8427 C.ar    1  UNL1       -0.0479
     26 C          -6.0535   -0.0094   -1.2279 C.3     1  UNL1        0.0388
     27 C          -4.4678   -2.3342    1.2856 C.ar    1  UNL1        0.1625
     28 C           2.5687   -2.0953    0.2209 C.ar    1  UNL1       -0.0398
     29 C           1.8281   -0.5111   -1.4463 C.ar    1  UNL1       -0.0398
     30 C           1.5375   -1.4036   -0.4144 C.ar    1  UNL1        0.0338
     31 C          -3.4293   -0.9375   -0.3411 C.ar    1  UNL1       -0.0049
     32 C          -5.9449    1.4149   -0.7585 C.ar    1  UNL1       -0.0105
     33 C          -2.2193   -1.4515    0.0798 C.ar    1  UNL1        0.1498
     34 C          -0.9415   -1.0072   -0.5362 C.2     1  UNL1        0.2684
     35 C          -5.4467    2.4222   -1.5848 C.ar    1  UNL1        0.0457
     36 C          -6.3574    1.7177    0.5390 C.ar    1  UNL1       -0.0373
     37 C          -6.2720    3.0277    1.0103 C.ar    1  UNL1        0.0414
     38 C          -5.3610    3.7324   -1.1135 C.ar    1  UNL1       -0.0417
     39 C          -5.7736    4.0350    0.1840 C.ar    1  UNL1       -0.0420
     40 H           8.2139    2.3818    0.5367 H       1  UNL1        0.0463
     41 H           9.6230    0.6862   -0.5905 H       1  UNL1        0.0295
     42 H           8.6781   -0.6194    0.1450 H       1  UNL1        0.0295
     43 H           6.6288    0.0527    1.7439 H       1  UNL1        0.0295
     44 H           6.3099    1.7738    2.0086 H       1  UNL1        0.0295
     45 H           7.7007    1.4822   -1.8656 H       1  UNL1        0.0465
     46 H           7.9988   -0.2305   -2.1789 H       1  UNL1        0.0465
     47 H           4.7778    0.8598    0.3483 H       1  UNL1        0.0465
     48 H           5.7817    2.1247   -0.3554 H       1  UNL1        0.0465
     49 H           7.6717    1.8210    3.6001 H       1  UNL1        0.0391
     50 H           8.5462    3.1526    2.7915 H       1  UNL1        0.0391
     51 H           9.3444    2.0948    3.9635 H       1  UNL1        0.0391
     52 H          10.8341    0.5913    1.1288 H       1  UNL1        0.0391
     53 H          10.5730    2.3609    1.1739 H       1  UNL1        0.0391
     54 H          11.0526    1.4546    2.6144 H       1  UNL1        0.0391
     55 H          -7.1375   -2.5909   -0.2894 H       1  UNL1        0.0479
     56 H          -7.9490   -1.1164    0.2478 H       1  UNL1        0.0479
     57 H          -7.6693   -2.7483    2.1199 H       1  UNL1        0.0477
     58 H          -6.8438   -1.2207    2.4474 H       1  UNL1        0.0477
     59 H           4.6873   -2.4377    0.3264 H       1  UNL1        0.0626
     60 H           3.3674    0.3875   -2.6474 H       1  UNL1        0.0626
     61 H          -7.0615   -0.1270   -1.6491 H       1  UNL1        0.0513
     62 H          -5.3776   -0.2659   -2.0487 H       1  UNL1        0.0513
     63 H          -5.4641   -3.4732    2.7073 H       1  UNL1        0.1476
     64 H           2.3567   -2.7938    1.0264 H       1  UNL1        0.0636
     65 H           1.0872    0.0611   -1.9863 H       1  UNL1        0.0636
     66 H          -3.4445   -0.1901   -1.1263 H       1  UNL1        0.0661
     67 H           0.0839   -2.2747    0.7373 H       1  UNL1        0.1552
     68 H          -6.7717    0.9630    1.2000 H       1  UNL1        0.0636
     69 H          -4.9752    4.5287   -1.7450 H       1  UNL1        0.0633
     70 H          -5.7011    5.0602    0.5379 H       1  UNL1        0.0633
@<TRIPOS>BOND
     1     1    35    1
     2     2    37    1
     3     3    17    2
     4     4    34    2
     5     5    15    1
     6     5    16    1
     7     5    17   am
     8     6    12    1
     9     6    18    1
    10     6    19    1
    11     7    21    1
    12     7    22    1
    13     7    26    1
    14     8    23    1
    15     8    27    1
    16     8    63    1
    17     9    30    1
    18     9    34   am
    19     9    67    1
    20    10    11   ar
    21    10    27   ar
    22    11    33   ar
    23    12    13    1
    24    12    14    1
    25    12    40    1
    26    13    15    1
    27    13    41    1
    28    13    42    1
    29    14    16    1
    30    14    43    1
    31    14    44    1
    32    15    45    1
    33    15    46    1
    34    16    47    1
    35    16    48    1
    36    17    20    1
    37    18    49    1
    38    18    50    1
    39    18    51    1
    40    19    52    1
    41    19    53    1
    42    19    54    1
    43    20    24   ar
    44    20    25   ar
    45    21    23    1
    46    21    55    1
    47    21    56    1
    48    22    27   ar
    49    22    31   ar
    50    23    57    1
    51    23    58    1
    52    24    28   ar
    53    24    59    1
    54    25    29   ar
    55    25    60    1
    56    26    32    1
    57    26    61    1
    58    26    62    1
    59    28    30   ar
    60    28    64    1
    61    29    30   ar
    62    29    65    1
    63    31    33   ar
    64    31    66    1
    65    32    35   ar
    66    32    36   ar
    67    33    34    1
    68    35    38   ar
    69    36    37   ar
    70    36    68    1
    71    37    39   ar
    72    38    39   ar
    73    38    69    1
    74    39    70    1
