@<TRIPOS>MOLECULE
122582661
 70 74 0 0 0
SMALL
GASTEIGER

@<TRIPOS>ATOM
      1 CL         -4.8692    2.0147   -3.2519 Cl      1  UNL1       -0.0832
      2 CL         -6.7115    3.4866    2.5214 Cl      1  UNL1       -0.0835
      3 O           6.0179   -1.6725   -2.4834 O.2     1  UNL1       -0.2700
      4 O          -0.9621   -0.2466   -1.4440 O.2     1  UNL1       -0.2681
      5 N           8.1566    1.5113    0.7180 N.3     1  UNL1       -0.2969
      6 N           6.3479    0.1043   -1.0005 N.am    1  UNL1       -0.2951
      7 N          -5.8407   -0.9150   -0.1002 N.pl3   1  UNL1       -0.3213
      8 N          -5.5756   -2.7492    2.0134 N.pl3   1  UNL1       -0.3247
      9 N          -3.2385   -2.7821    1.7157 N.ar    1  UNL1       -0.1318
     10 N           0.2412   -1.6430    0.0160 N.am    1  UNL1       -0.2802
     11 N          -2.1002   -2.3642    1.1022 N.ar    1  UNL1       -0.1427
     12 C           6.7939    1.1977    1.1714 C.3     1  UNL1        0.0150
     13 C           8.6505    0.4636   -0.1875 C.3     1  UNL1        0.0150
     14 C           5.8356    1.0617   -0.0138 C.3     1  UNL1        0.0278
     15 C           7.7349    0.3267   -1.4027 C.3     1  UNL1        0.0278
     16 C           9.0551    1.6673    1.8611 C.3     1  UNL1        0.0049
     17 C           8.8567    3.0481    2.4782 C.3     1  UNL1       -0.0497
     18 C           8.8015    0.5667    2.8875 C.3     1  UNL1       -0.0497
     19 C           5.6071   -0.9122   -1.6078 C.2     1  UNL1        0.2467
     20 C           4.2132   -1.1021   -1.1848 C.ar    1  UNL1        0.0370
     21 C          -7.0009   -1.6669    0.3763 C.3     1  UNL1        0.0282
     22 C          -6.8216   -2.0377    1.8420 C.3     1  UNL1        0.0263
     23 C          -4.5810   -1.3757    0.2827 C.ar    1  UNL1        0.0743
     24 C          -6.0130   -0.0221   -1.2344 C.3     1  UNL1        0.0388
     25 C          -4.4482   -2.2994    1.3350 C.ar    1  UNL1        0.1625
     26 C           3.1879   -0.4171   -1.8371 C.ar    1  UNL1       -0.0479
     27 C           3.9143   -1.9671   -0.1321 C.ar    1  UNL1       -0.0479
     28 C          -3.3972   -0.9513   -0.3242 C.ar    1  UNL1       -0.0049
     29 C          -5.8922    1.4121   -0.7993 C.ar    1  UNL1       -0.0105
     30 C           1.5653   -1.4619   -0.3839 C.ar    1  UNL1        0.0338
     31 C           1.8641   -0.5970   -1.4367 C.ar    1  UNL1       -0.0398
     32 C           2.5905   -2.1469    0.2684 C.ar    1  UNL1       -0.0398
     33 C          -2.1919   -1.4654    0.1096 C.ar    1  UNL1        0.1498
     34 C          -0.9101   -1.0470   -0.5164 C.2     1  UNL1        0.2684
     35 C          -5.3852    2.3950   -1.6493 C.ar    1  UNL1        0.0457
     36 C          -6.3025    1.7495    0.4904 C.ar    1  UNL1       -0.0373
     37 C          -6.2059    3.0697    0.9301 C.ar    1  UNL1        0.0414
     38 C          -5.2883    3.7152   -1.2096 C.ar    1  UNL1       -0.0417
     39 C          -5.6986    4.0525    0.0801 C.ar    1  UNL1       -0.0420
     40 H           6.7340    0.2419    1.7056 H       1  UNL1        0.0442
     41 H           6.3974    1.9808    1.8262 H       1  UNL1        0.0442
     42 H           9.6550    0.7189   -0.5461 H       1  UNL1        0.0442
     43 H           8.7171   -0.5105    0.3113 H       1  UNL1        0.0442
     44 H           4.8449    0.7787    0.3489 H       1  UNL1        0.0477
     45 H           5.7290    2.0240   -0.5297 H       1  UNL1        0.0477
     46 H           7.7536    1.2444   -2.0036 H       1  UNL1        0.0477
     47 H           8.0872   -0.4889   -2.0428 H       1  UNL1        0.0477
     48 H          10.0992    1.6155    1.5263 H       1  UNL1        0.0457
     49 H           7.8703    3.1760    2.9350 H       1  UNL1        0.0245
     50 H           8.9896    3.8367    1.7289 H       1  UNL1        0.0245
     51 H           9.6000    3.2182    3.2656 H       1  UNL1        0.0245
     52 H           7.8739    0.7012    3.4551 H       1  UNL1        0.0245
     53 H           8.8266   -0.4428    2.4667 H       1  UNL1        0.0245
     54 H           9.6043    0.5960    3.6358 H       1  UNL1        0.0245
     55 H          -7.1196   -2.5709   -0.2348 H       1  UNL1        0.0479
     56 H          -7.9185   -1.0769    0.2665 H       1  UNL1        0.0479
     57 H          -7.6534   -2.6656    2.1776 H       1  UNL1        0.0477
     58 H          -6.8148   -1.1378    2.4685 H       1  UNL1        0.0477
     59 H          -7.0219   -0.1411   -1.6532 H       1  UNL1        0.0513
     60 H          -5.3391   -0.3040   -2.0485 H       1  UNL1        0.0513
     61 H          -5.4548   -3.3953    2.7831 H       1  UNL1        0.1476
     62 H           3.4114    0.2593   -2.6583 H       1  UNL1        0.0626
     63 H           4.7059   -2.5051    0.3832 H       1  UNL1        0.0626
     64 H          -3.4057   -0.2229   -1.1271 H       1  UNL1        0.0661
     65 H           1.1283   -0.0315   -1.9906 H       1  UNL1        0.0636
     66 H           2.3721   -2.8240    1.0904 H       1  UNL1        0.0636
     67 H           0.1039   -2.2925    0.7877 H       1  UNL1        0.1552
     68 H          -6.7234    1.0145    1.1691 H       1  UNL1        0.0636
     69 H          -4.8954    4.4927   -1.8599 H       1  UNL1        0.0633
     70 H          -5.6173    5.0853    0.4093 H       1  UNL1        0.0633
@<TRIPOS>BOND
     1     1    35    1
     2     2    37    1
     3     3    19    2
     4     4    34    2
     5     5    12    1
     6     5    13    1
     7     5    16    1
     8     6    14    1
     9     6    15    1
    10     6    19   am
    11     7    21    1
    12     7    23    1
    13     7    24    1
    14     8    22    1
    15     8    25    1
    16     8    61    1
    17     9    11   ar
    18     9    25   ar
    19    10    30    1
    20    10    34   am
    21    10    67    1
    22    11    33   ar
    23    12    14    1
    24    12    40    1
    25    12    41    1
    26    13    15    1
    27    13    42    1
    28    13    43    1
    29    14    44    1
    30    14    45    1
    31    15    46    1
    32    15    47    1
    33    16    17    1
    34    16    18    1
    35    16    48    1
    36    17    49    1
    37    17    50    1
    38    17    51    1
    39    18    52    1
    40    18    53    1
    41    18    54    1
    42    19    20    1
    43    20    26   ar
    44    20    27   ar
    45    21    22    1
    46    21    55    1
    47    21    56    1
    48    22    57    1
    49    22    58    1
    50    23    25   ar
    51    23    28   ar
    52    24    29    1
    53    24    59    1
    54    24    60    1
    55    26    31   ar
    56    26    62    1
    57    27    32   ar
    58    27    63    1
    59    28    33   ar
    60    28    64    1
    61    29    35   ar
    62    29    36   ar
    63    30    31   ar
    64    30    32   ar
    65    31    65    1
    66    32    66    1
    67    33    34    1
    68    35    38   ar
    69    36    37   ar
    70    36    68    1
    71    37    39   ar
    72    38    39   ar
    73    38    69    1
    74    39    70    1
