@<TRIPOS>MOLECULE
122582649
 72 77 0 0 0
SMALL
GASTEIGER

@<TRIPOS>ATOM
      1 CL         -4.7296   -3.1836    2.4096 Cl      1  UNL1       -0.0832
      2 CL         -7.7933   -2.3315   -2.9551 Cl      1  UNL1       -0.0835
      3 O          -1.1239   -0.3340    0.8200 O.2     1  UNL1       -0.2681
      4 N           9.3610   -0.7761    0.2820 N.3     1  UNL1       -0.2993
      5 N           5.3051    0.3367   -0.1764 N.pl3   1  UNL1       -0.3298
      6 N          -6.1169    0.7227    0.9008 N.pl3   1  UNL1       -0.3213
      7 N          -0.1697    1.5435   -0.2145 N.am    1  UNL1       -0.2802
      8 N          -6.1605    3.2371   -0.3552 N.pl3   1  UNL1       -0.3247
      9 N          -3.8146    3.1904   -0.5704 N.ar    1  UNL1       -0.1318
     10 N          -2.6068    2.5860   -0.4197 N.ar    1  UNL1       -0.1427
     11 C           8.1226   -0.2924   -0.3099 C.3     1  UNL1        0.0133
     12 C           7.6099    0.9210    0.4687 C.3     1  UNL1       -0.0215
     13 C           7.0569   -1.3920   -0.3114 C.3     1  UNL1       -0.0215
     14 C           9.9170   -1.9191   -0.4420 C.3     1  UNL1       -0.0008
     15 C          10.4188    0.2339    0.2669 C.3     1  UNL1       -0.0008
     16 C          11.3429   -1.9951    0.0836 C.3     1  UNL1       -0.0390
     17 C          11.6715   -0.5812    0.5527 C.3     1  UNL1       -0.0390
     18 C           6.2835    1.4274   -0.1001 C.3     1  UNL1        0.0136
     19 C           5.7351   -0.8787   -0.8820 C.3     1  UNL1        0.0136
     20 C           3.9380    0.6381   -0.1868 C.ar    1  UNL1        0.0298
     21 C           3.4921    1.8388   -0.7392 C.ar    1  UNL1       -0.0389
     22 C           3.0216   -0.2624    0.3565 C.ar    1  UNL1       -0.0389
     23 C           2.1300    2.1390   -0.7486 C.ar    1  UNL1       -0.0387
     24 C           1.6595    0.0377    0.3473 C.ar    1  UNL1       -0.0387
     25 C           1.2137    1.2384   -0.2054 C.ar    1  UNL1        0.0338
     26 C          -7.2961    1.5812    1.0055 C.3     1  UNL1        0.0282
     27 C          -4.9322    1.3165    0.4654 C.ar    1  UNL1        0.0743
     28 C          -7.3915    2.4944   -0.2088 C.3     1  UNL1        0.0263
     29 C          -6.1168   -0.5429    1.6161 C.3     1  UNL1        0.0388
     30 C          -4.9525    2.5781   -0.1560 C.ar    1  UNL1        0.1625
     31 C          -1.2383    0.7785    0.2772 C.2     1  UNL1        0.2684
     32 C          -3.6818    0.7094    0.5982 C.ar    1  UNL1       -0.0049
     33 C          -2.5568    1.3713    0.1490 C.ar    1  UNL1        0.1498
     34 C          -6.1832   -1.6939    0.6510 C.ar    1  UNL1       -0.0105
     35 C          -5.5825   -2.9211    0.9322 C.ar    1  UNL1        0.0457
     36 C          -6.8669   -1.5114   -0.5510 C.ar    1  UNL1       -0.0373
     37 C          -6.9502   -2.5560   -1.4716 C.ar    1  UNL1        0.0414
     38 C          -5.6656   -3.9657    0.0116 C.ar    1  UNL1       -0.0417
     39 C          -6.3494   -3.7832   -1.1903 C.ar    1  UNL1       -0.0420
     40 H           8.2987    0.0159   -1.3510 H       1  UNL1        0.0463
     41 H           8.3172    1.7569    0.4347 H       1  UNL1        0.0295
     42 H           7.4695    0.6574    1.5258 H       1  UNL1        0.0295
     43 H           6.8904   -1.7564    0.7113 H       1  UNL1        0.0295
     44 H           7.3638   -2.2523   -0.9163 H       1  UNL1        0.0295
     45 H           9.3907   -2.8558   -0.2342 H       1  UNL1        0.0427
     46 H           9.9310   -1.7517   -1.5267 H       1  UNL1        0.0427
     47 H          10.5096    0.7208   -0.7126 H       1  UNL1        0.0427
     48 H          10.2919    1.0023    1.0355 H       1  UNL1        0.0427
     49 H          11.4116   -2.6907    0.9282 H       1  UNL1        0.0278
     50 H          12.0378   -2.3368   -0.6902 H       1  UNL1        0.0278
     51 H          12.5435   -0.1735    0.0312 H       1  UNL1        0.0278
     52 H          11.8953   -0.5900    1.6260 H       1  UNL1        0.0278
     53 H           5.9231    2.2301    0.5554 H       1  UNL1        0.0464
     54 H           6.4479    1.8527   -1.0981 H       1  UNL1        0.0464
     55 H           5.8480   -0.6541   -1.9503 H       1  UNL1        0.0464
     56 H           4.9952   -1.6833   -0.8010 H       1  UNL1        0.0464
     57 H           4.1756    2.5561   -1.1846 H       1  UNL1        0.0637
     58 H           3.3517   -1.1961    0.8050 H       1  UNL1        0.0637
     59 H           1.7951    3.0765   -1.1852 H       1  UNL1        0.0637
     60 H           1.0128   -0.7068    0.7892 H       1  UNL1        0.0637
     61 H          -8.2103    0.9798    1.0734 H       1  UNL1        0.0479
     62 H          -7.2279    2.1754    1.9259 H       1  UNL1        0.0479
     63 H          -0.4049    2.4412   -0.6333 H       1  UNL1        0.1552
     64 H          -7.5719    1.9081   -1.1178 H       1  UNL1        0.0477
     65 H          -8.2296    3.1895   -0.0943 H       1  UNL1        0.0477
     66 H          -7.0102   -0.6123    2.2521 H       1  UNL1        0.0513
     67 H          -5.2753   -0.5877    2.3134 H       1  UNL1        0.0513
     68 H          -6.1542    4.1331   -0.8261 H       1  UNL1        0.1476
     69 H          -3.5782   -0.2736    1.0439 H       1  UNL1        0.0661
     70 H          -7.3656   -0.5778   -0.7912 H       1  UNL1        0.0636
     71 H          -5.2029   -4.9279    0.2158 H       1  UNL1        0.0633
     72 H          -6.4061   -4.6059   -1.8985 H       1  UNL1        0.0633
@<TRIPOS>BOND
     1     1    35    1
     2     2    37    1
     3     3    31    2
     4     4    11    1
     5     4    14    1
     6     4    15    1
     7     5    18    1
     8     5    19    1
     9     5    20    1
    10     6    26    1
    11     6    27    1
    12     6    29    1
    13     7    25    1
    14     7    31   am
    15     7    63    1
    16     8    28    1
    17     8    30    1
    18     8    68    1
    19     9    10   ar
    20     9    30   ar
    21    10    33   ar
    22    11    12    1
    23    11    13    1
    24    11    40    1
    25    12    18    1
    26    12    41    1
    27    12    42    1
    28    13    19    1
    29    13    43    1
    30    13    44    1
    31    14    16    1
    32    14    45    1
    33    14    46    1
    34    15    17    1
    35    15    47    1
    36    15    48    1
    37    16    17    1
    38    16    49    1
    39    16    50    1
    40    17    51    1
    41    17    52    1
    42    18    53    1
    43    18    54    1
    44    19    55    1
    45    19    56    1
    46    20    21   ar
    47    20    22   ar
    48    21    23   ar
    49    21    57    1
    50    22    24   ar
    51    22    58    1
    52    23    25   ar
    53    23    59    1
    54    24    25   ar
    55    24    60    1
    56    26    28    1
    57    26    61    1
    58    26    62    1
    59    27    30   ar
    60    27    32   ar
    61    28    64    1
    62    28    65    1
    63    29    34    1
    64    29    66    1
    65    29    67    1
    66    31    33    1
    67    32    33   ar
    68    32    69    1
    69    34    35   ar
    70    34    36   ar
    71    35    38   ar
    72    36    37   ar
    73    36    70    1
    74    37    39   ar
    75    38    39   ar
    76    38    71    1
    77    39    72    1
