@<TRIPOS>MOLECULE
122582650
 71 75 0 0 0
SMALL
GASTEIGER

@<TRIPOS>ATOM
      1 CL         -4.5913    3.1212   -2.4123 Cl      1  UNL1       -0.0832
      2 CL         -7.5715    2.1941    2.9870 Cl      1  UNL1       -0.0835
      3 O          -0.8759    0.4033   -0.8452 O.2     1  UNL1       -0.2681
      4 N           5.5817   -0.0447    0.0899 N.pl3   1  UNL1       -0.3298
      5 N           9.5983    1.2044   -0.4171 N.3     1  UNL1       -0.3109
      6 N          -5.8309   -0.8219   -0.8707 N.pl3   1  UNL1       -0.3213
      7 N          -5.7770   -3.3297    0.3979 N.pl3   1  UNL1       -0.3247
      8 N           0.1515   -1.4355    0.1890 N.am    1  UNL1       -0.2802
      9 N          -3.4320   -3.2028    0.5893 N.ar    1  UNL1       -0.1318
     10 N          -2.2468   -2.5586    0.4235 N.ar    1  UNL1       -0.1427
     11 C           8.3774    0.6799    0.1922 C.3     1  UNL1        0.0107
     12 C           7.8983   -0.5542   -0.5754 C.3     1  UNL1       -0.0217
     13 C           7.2752    1.7429    0.1989 C.3     1  UNL1       -0.0217
     14 C           6.5956   -1.1021    0.0091 C.3     1  UNL1        0.0136
     15 C           5.9773    1.1881    0.7854 C.3     1  UNL1        0.0136
     16 C          10.7520    0.4083   -0.0281 C.3     1  UNL1        0.0022
     17 C           4.2256   -0.3920    0.1156 C.ar    1  UNL1        0.0298
     18 C          11.2103    0.7922    1.3761 C.3     1  UNL1       -0.0499
     19 C          11.8724    0.6077   -1.0439 C.3     1  UNL1       -0.0499
     20 C           3.8261   -1.6043    0.6783 C.ar    1  UNL1       -0.0389
     21 C           3.2740    0.4741   -0.4229 C.ar    1  UNL1       -0.0389
     22 C           2.4751   -1.9501    0.7028 C.ar    1  UNL1       -0.0387
     23 C           1.9230    0.1283   -0.3986 C.ar    1  UNL1       -0.0387
     24 C           1.5236   -1.0838    0.1643 C.ar    1  UNL1        0.0338
     25 C          -6.9813   -1.7203   -0.9593 C.3     1  UNL1        0.0282
     26 C          -4.6225   -1.3730   -0.4444 C.ar    1  UNL1        0.0743
     27 C          -7.0337   -2.6297    0.2603 C.3     1  UNL1        0.0263
     28 C          -5.8807    0.4393   -1.5921 C.3     1  UNL1        0.0388
     29 C          -4.5940   -2.6313    0.1834 C.ar    1  UNL1        0.1625
     30 C          -3.3947   -0.7248   -0.5925 C.ar    1  UNL1       -0.0049
     31 C          -5.9764    1.5925   -0.6319 C.ar    1  UNL1       -0.0105
     32 C          -2.2436   -1.3460   -0.1515 C.ar    1  UNL1        0.1498
     33 C          -0.9473   -0.7096   -0.2958 C.2     1  UNL1        0.2684
     34 C          -5.4204    2.8376   -0.9252 C.ar    1  UNL1        0.0457
     35 C          -6.6417    1.3932    0.5778 C.ar    1  UNL1       -0.0373
     36 C          -6.7512    2.4393    1.4941 C.ar    1  UNL1        0.0414
     37 C          -5.5296    3.8836   -0.0088 C.ar    1  UNL1       -0.0417
     38 C          -6.1950    3.6844    1.2008 C.ar    1  UNL1       -0.0420
     39 H           8.5460    0.4009    1.2390 H       1  UNL1        0.0461
     40 H           7.7321   -0.2928   -1.6296 H       1  UNL1        0.0295
     41 H           8.6372   -1.3618   -0.5644 H       1  UNL1        0.0295
     42 H           7.5900    2.6162    0.7832 H       1  UNL1        0.0295
     43 H           7.0860    2.0927   -0.8249 H       1  UNL1        0.0295
     44 H           6.2559   -1.9194   -0.6394 H       1  UNL1        0.0464
     45 H           6.7844   -1.5171    1.0071 H       1  UNL1        0.0464
     46 H           6.1082    0.9733    1.8535 H       1  UNL1        0.0464
     47 H           5.2103    1.9672    0.7079 H       1  UNL1        0.0464
     48 H           9.7412    2.1762   -0.1441 H       1  UNL1        0.1224
     49 H          10.5325   -0.6644   -0.0303 H       1  UNL1        0.0455
     50 H          11.4471    1.8604    1.4442 H       1  UNL1        0.0245
     51 H          12.1192    0.2405    1.6426 H       1  UNL1        0.0245
     52 H          10.4645    0.5622    2.1423 H       1  UNL1        0.0245
     53 H          12.7471    0.0028   -0.7810 H       1  UNL1        0.0245
     54 H          11.5503    0.3069   -2.0472 H       1  UNL1        0.0245
     55 H          12.1918    1.6550   -1.0904 H       1  UNL1        0.0245
     56 H           4.5378   -2.2957    1.1203 H       1  UNL1        0.0637
     57 H           3.5679    1.4161   -0.8792 H       1  UNL1        0.0637
     58 H           2.1764   -2.8961    1.1472 H       1  UNL1        0.0637
     59 H           1.2472    0.8483   -0.8375 H       1  UNL1        0.0637
     60 H          -6.9022   -2.3166   -1.8775 H       1  UNL1        0.0479
     61 H          -7.9159   -1.1505   -1.0209 H       1  UNL1        0.0479
     62 H          -7.2249   -2.0452    1.1681 H       1  UNL1        0.0477
     63 H          -7.8489   -3.3533    0.1576 H       1  UNL1        0.0477
     64 H          -6.7821    0.4752   -2.2194 H       1  UNL1        0.0513
     65 H          -5.0480    0.5089   -2.2979 H       1  UNL1        0.0513
     66 H          -5.7357   -4.2225    0.8731 H       1  UNL1        0.1476
     67 H          -0.0490   -2.3384    0.6145 H       1  UNL1        0.1552
     68 H          -3.3288    0.2589   -1.0439 H       1  UNL1        0.0661
     69 H          -7.1060    0.4445    0.8276 H       1  UNL1        0.0636
     70 H          -5.1018    4.8599   -0.2224 H       1  UNL1        0.0633
     71 H          -6.2724    4.5084    1.9054 H       1  UNL1        0.0633
@<TRIPOS>BOND
     1     1    34    1
     2     2    36    1
     3     3    33    2
     4     4    14    1
     5     4    15    1
     6     4    17    1
     7     5    11    1
     8     5    16    1
     9     5    48    1
    10     6    25    1
    11     6    26    1
    12     6    28    1
    13     7    27    1
    14     7    29    1
    15     7    66    1
    16     8    24    1
    17     8    33   am
    18     8    67    1
    19     9    10   ar
    20     9    29   ar
    21    10    32   ar
    22    11    12    1
    23    11    13    1
    24    11    39    1
    25    12    14    1
    26    12    40    1
    27    12    41    1
    28    13    15    1
    29    13    42    1
    30    13    43    1
    31    14    44    1
    32    14    45    1
    33    15    46    1
    34    15    47    1
    35    16    18    1
    36    16    19    1
    37    16    49    1
    38    17    20   ar
    39    17    21   ar
    40    18    50    1
    41    18    51    1
    42    18    52    1
    43    19    53    1
    44    19    54    1
    45    19    55    1
    46    20    22   ar
    47    20    56    1
    48    21    23   ar
    49    21    57    1
    50    22    24   ar
    51    22    58    1
    52    23    24   ar
    53    23    59    1
    54    25    27    1
    55    25    60    1
    56    25    61    1
    57    26    29   ar
    58    26    30   ar
    59    27    62    1
    60    27    63    1
    61    28    31    1
    62    28    64    1
    63    28    65    1
    64    30    32   ar
    65    30    68    1
    66    31    34   ar
    67    31    35   ar
    68    32    33    1
    69    34    37   ar
    70    35    36   ar
    71    35    69    1
    72    36    38   ar
    73    37    38   ar
    74    37    70    1
    75    38    71    1
