@<TRIPOS>MOLECULE
122582662
 69 73 0 0 0
SMALL
GASTEIGER

@<TRIPOS>ATOM
      1 CL         -4.5220    3.0360   -2.4209 Cl      1  UNL1       -0.0832
      2 CL         -7.3443    1.9721    3.0376 Cl      1  UNL1       -0.0835
      3 O          -0.6210    0.5608   -0.9030 O.2     1  UNL1       -0.2681
      4 N           8.8415    0.2058    0.4430 N.3     1  UNL1       -0.2999
      5 N          -5.4920   -0.9628   -0.8304 N.pl3   1  UNL1       -0.3213
      6 N           0.5344   -1.2040    0.1248 N.am    1  UNL1       -0.2802
      7 N          -5.2633   -3.4528    0.4540 N.pl3   1  UNL1       -0.3247
      8 N          -2.9274   -3.1823    0.6020 N.ar    1  UNL1       -0.1318
      9 N          -1.7867   -2.4688    0.4104 N.ar    1  UNL1       -0.1427
     10 C           5.9781    0.5489   -0.0829 C.3     1  UNL1       -0.0135
     11 C           6.8619   -0.3913   -0.9174 C.3     1  UNL1       -0.0333
     12 C           6.5856    0.7297    1.3169 C.3     1  UNL1       -0.0333
     13 C           8.3178    0.0819   -0.9243 C.3     1  UNL1       -0.0003
     14 C           8.0516    1.1625    1.2304 C.3     1  UNL1       -0.0003
     15 C          10.2490    0.6037    0.4175 C.3     1  UNL1        0.0048
     16 C           4.5357    0.0839   -0.0283 C.ar    1  UNL1       -0.0441
     17 C          10.4804    1.6612   -0.6582 C.3     1  UNL1       -0.0497
     18 C          11.1197   -0.6249    0.1741 C.3     1  UNL1       -0.0497
     19 C           4.2203   -1.1459    0.5497 C.ar    1  UNL1       -0.0566
     20 C           3.5241    0.8865   -0.5559 C.ar    1  UNL1       -0.0566
     21 C           2.8934   -1.5728    0.6003 C.ar    1  UNL1       -0.0402
     22 C           2.1972    0.4596   -0.5052 C.ar    1  UNL1       -0.0402
     23 C           1.8819   -0.7700    0.0729 C.ar    1  UNL1        0.0337
     24 C          -6.5871   -1.9301   -0.8922 C.3     1  UNL1        0.0282
     25 C          -4.2450   -1.4362   -0.4223 C.ar    1  UNL1        0.0743
     26 C          -6.5625   -2.8314    0.3344 C.3     1  UNL1        0.0263
     27 C          -5.6311    0.2873   -1.5593 C.3     1  UNL1        0.0388
     28 C          -4.1289   -2.6856    0.2134 C.ar    1  UNL1        0.1625
     29 C          -3.0617   -0.7159   -0.5971 C.ar    1  UNL1       -0.0049
     30 C          -0.6148   -0.5500   -0.3449 C.2     1  UNL1        0.2684
     31 C          -1.8674   -1.2627   -0.1728 C.ar    1  UNL1        0.1498
     32 C          -5.7798    1.4400   -0.6054 C.ar    1  UNL1       -0.0105
     33 C          -5.3057    2.7143   -0.9171 C.ar    1  UNL1        0.0457
     34 C          -6.4102    1.2103    0.6174 C.ar    1  UNL1       -0.0373
     35 C          -6.5669    2.2549    1.5284 C.ar    1  UNL1        0.0414
     36 C          -5.4622    3.7589   -0.0060 C.ar    1  UNL1       -0.0417
     37 C          -6.0927    3.5292    1.2167 C.ar    1  UNL1       -0.0420
     38 H           6.0004    1.5330   -0.5734 H       1  UNL1        0.0350
     39 H           6.8250   -1.4156   -0.5245 H       1  UNL1        0.0283
     40 H           6.4881   -0.4406   -1.9480 H       1  UNL1        0.0283
     41 H           6.0163    1.4804    1.8793 H       1  UNL1        0.0283
     42 H           6.5254   -0.2024    1.8935 H       1  UNL1        0.0283
     43 H           8.8937   -0.6465   -1.5057 H       1  UNL1        0.0427
     44 H           8.3171    1.0305   -1.4742 H       1  UNL1        0.0427
     45 H           8.0998    2.1751    0.8120 H       1  UNL1        0.0427
     46 H           8.4438    1.2161    2.2535 H       1  UNL1        0.0427
     47 H          10.5449    1.0120    1.3926 H       1  UNL1        0.0457
     48 H          10.4533    1.2650   -1.6795 H       1  UNL1        0.0245
     49 H          11.4914    2.0707   -0.5341 H       1  UNL1        0.0245
     50 H           9.8025    2.5170   -0.5793 H       1  UNL1        0.0245
     51 H          12.1799   -0.3561    0.2431 H       1  UNL1        0.0245
     52 H          10.9286   -1.3970    0.9279 H       1  UNL1        0.0245
     53 H          10.9628   -1.0696   -0.8138 H       1  UNL1        0.0245
     54 H           4.9914   -1.7874    0.9667 H       1  UNL1        0.0621
     55 H           3.7546    1.8470   -1.0092 H       1  UNL1        0.0621
     56 H           2.6611   -2.5331    1.0535 H       1  UNL1        0.0636
     57 H           1.4710    1.1354   -0.9338 H       1  UNL1        0.0636
     58 H          -6.4880   -2.5277   -1.8075 H       1  UNL1        0.0479
     59 H          -7.5556   -1.4185   -0.9407 H       1  UNL1        0.0479
     60 H          -6.7728   -2.2524    1.2416 H       1  UNL1        0.0477
     61 H          -7.3340   -3.6039    0.2514 H       1  UNL1        0.0477
     62 H           0.3967   -2.1141    0.5600 H       1  UNL1        0.1552
     63 H          -6.5440    0.2635   -2.1704 H       1  UNL1        0.0513
     64 H          -4.8169    0.4017   -2.2806 H       1  UNL1        0.0513
     65 H          -5.1595   -4.3376    0.9344 H       1  UNL1        0.1476
     66 H          -3.0637    0.2664   -1.0564 H       1  UNL1        0.0661
     67 H          -6.8116    0.2372    0.8820 H       1  UNL1        0.0636
     68 H          -5.0985    4.7576   -0.2339 H       1  UNL1        0.0633
     69 H          -6.2076    4.3525    1.9171 H       1  UNL1        0.0633
@<TRIPOS>BOND
     1     1    33    1
     2     2    35    1
     3     3    30    2
     4     4    13    1
     5     4    14    1
     6     4    15    1
     7     5    24    1
     8     5    25    1
     9     5    27    1
    10     6    23    1
    11     6    30   am
    12     6    62    1
    13     7    26    1
    14     7    28    1
    15     7    65    1
    16     8     9   ar
    17     8    28   ar
    18     9    31   ar
    19    10    11    1
    20    10    12    1
    21    10    16    1
    22    10    38    1
    23    11    13    1
    24    11    39    1
    25    11    40    1
    26    12    14    1
    27    12    41    1
    28    12    42    1
    29    13    43    1
    30    13    44    1
    31    14    45    1
    32    14    46    1
    33    15    17    1
    34    15    18    1
    35    15    47    1
    36    16    19   ar
    37    16    20   ar
    38    17    48    1
    39    17    49    1
    40    17    50    1
    41    18    51    1
    42    18    52    1
    43    18    53    1
    44    19    21   ar
    45    19    54    1
    46    20    22   ar
    47    20    55    1
    48    21    23   ar
    49    21    56    1
    50    22    23   ar
    51    22    57    1
    52    24    26    1
    53    24    58    1
    54    24    59    1
    55    25    28   ar
    56    25    29   ar
    57    26    60    1
    58    26    61    1
    59    27    32    1
    60    27    63    1
    61    27    64    1
    62    29    31   ar
    63    29    66    1
    64    30    31    1
    65    32    33   ar
    66    32    34   ar
    67    33    36   ar
    68    34    35   ar
    69    34    67    1
    70    35    37   ar
    71    36    37   ar
    72    36    68    1
    73    37    69    1
