@<TRIPOS>MOLECULE
122582646
 68 72 0 0 0
SMALL
GASTEIGER

@<TRIPOS>ATOM
      1 CL         -4.2108    3.1181   -2.4223 Cl      1  UNL1       -0.0832
      2 CL         -7.2157    2.2177    2.9678 Cl      1  UNL1       -0.0835
      3 O          -0.5157    0.3834   -0.8362 O.2     1  UNL1       -0.2681
      4 N           5.9359   -0.0973    0.1237 N.pl3   1  UNL1       -0.3298
      5 N           9.9609    1.1292   -0.3711 N.3     1  UNL1       -0.3053
      6 N          -5.4771   -0.8152   -0.8775 N.pl3   1  UNL1       -0.3213
      7 N          -5.4413   -3.3208    0.3962 N.pl3   1  UNL1       -0.3247
      8 N           0.4980   -1.4588    0.2054 N.am    1  UNL1       -0.2802
      9 N          -3.0964   -3.2061    0.5960 N.ar    1  UNL1       -0.1318
     10 N          -1.9072   -2.5686    0.4333 N.ar    1  UNL1       -0.1427
     11 C           8.7350    0.6125    0.2348 C.3     1  UNL1        0.0127
     12 C           7.6385    1.6813    0.2354 C.3     1  UNL1       -0.0215
     13 C           8.2522   -0.6205   -0.5321 C.3     1  UNL1       -0.0215
     14 C           6.3355    1.1347    0.8181 C.3     1  UNL1        0.0136
     15 C           6.9444   -1.1603    0.0486 C.3     1  UNL1        0.0136
     16 C           4.5779   -0.4373    0.1450 C.ar    1  UNL1        0.0298
     17 C          11.0043    0.1042   -0.3689 C.3     1  UNL1       -0.0128
     18 C          10.4177    2.3244    0.3377 C.3     1  UNL1       -0.0128
     19 C           4.1698   -1.6463    0.7086 C.ar    1  UNL1       -0.0389
     20 C           3.6329    0.4328   -0.3987 C.ar    1  UNL1       -0.0389
     21 C           2.8168   -1.9849    0.7288 C.ar    1  UNL1       -0.0387
     22 C           2.2800    0.0943   -0.3787 C.ar    1  UNL1       -0.0387
     23 C           1.8720   -1.1146    0.1851 C.ar    1  UNL1        0.0338
     24 C          -6.6320   -1.7077   -0.9687 C.3     1  UNL1        0.0282
     25 C          -4.2732   -1.3720   -0.4456 C.ar    1  UNL1        0.0743
     26 C          -6.6937   -2.6143    0.2525 C.3     1  UNL1        0.0263
     27 C          -5.5174    0.4448   -1.6016 C.3     1  UNL1        0.0388
     28 C          -4.2538   -2.6291    0.1847 C.ar    1  UNL1        0.1625
     29 C          -3.0415   -0.7306   -0.5905 C.ar    1  UNL1       -0.0049
     30 C          -5.6106    1.6003   -0.6440 C.ar    1  UNL1       -0.0105
     31 C          -1.8953   -1.3572   -0.1440 C.ar    1  UNL1        0.1498
     32 C          -0.5951   -0.7280   -0.2848 C.2     1  UNL1        0.2684
     33 C          -5.0467    2.8418   -0.9377 C.ar    1  UNL1        0.0457
     34 C          -6.2813    1.4071    0.5636 C.ar    1  UNL1       -0.0373
     35 C          -6.3886    2.4555    1.4774 C.ar    1  UNL1        0.0414
     36 C          -5.1538    3.8903   -0.0238 C.ar    1  UNL1       -0.0417
     37 C          -5.8246    3.6970    1.1837 C.ar    1  UNL1       -0.0420
     38 H           8.9272    0.3177    1.2771 H       1  UNL1        0.0463
     39 H           7.9101    2.5512    0.8424 H       1  UNL1        0.0295
     40 H           7.4559    2.0372   -0.7874 H       1  UNL1        0.0295
     41 H           8.1002   -0.3713   -1.5910 H       1  UNL1        0.0295
     42 H           8.9711   -1.4451   -0.4897 H       1  UNL1        0.0295
     43 H           6.4611    0.9208    1.8872 H       1  UNL1        0.0464
     44 H           5.5723    1.9172    0.7364 H       1  UNL1        0.0464
     45 H           6.6026   -1.9776   -0.5989 H       1  UNL1        0.0464
     46 H           7.1267   -1.5736    1.0486 H       1  UNL1        0.0464
     47 H          11.9641    0.5337   -0.6818 H       1  UNL1        0.0391
     48 H          11.1517   -0.3448    0.6201 H       1  UNL1        0.0391
     49 H          10.8067   -0.6845   -1.1011 H       1  UNL1        0.0391
     50 H           9.7761    3.1884    0.1391 H       1  UNL1        0.0391
     51 H          10.4941    2.1683    1.4199 H       1  UNL1        0.0391
     52 H          11.4081    2.6290   -0.0227 H       1  UNL1        0.0391
     53 H           4.8762   -2.3406    1.1546 H       1  UNL1        0.0637
     54 H           3.9335    1.3723   -0.8558 H       1  UNL1        0.0637
     55 H           2.5115   -2.9284    1.1740 H       1  UNL1        0.0637
     56 H           1.6097    0.8170   -0.8216 H       1  UNL1        0.0637
     57 H          -6.5527   -2.3062   -1.8853 H       1  UNL1        0.0479
     58 H          -7.5633   -1.1329   -1.0348 H       1  UNL1        0.0479
     59 H          -7.5125   -3.3338    0.1483 H       1  UNL1        0.0477
     60 H          -6.8851   -2.0270    1.1586 H       1  UNL1        0.0477
     61 H          -6.4164    0.4842   -2.2323 H       1  UNL1        0.0513
     62 H          -4.6819    0.5085   -2.3045 H       1  UNL1        0.0513
     63 H          -5.4066   -4.2128    0.8733 H       1  UNL1        0.1476
     64 H          -2.9686    0.2517   -1.0436 H       1  UNL1        0.0661
     65 H           0.2911   -2.3598    0.6320 H       1  UNL1        0.1552
     66 H          -6.7516    0.4614    0.8135 H       1  UNL1        0.0636
     67 H          -4.7199    4.8638   -0.2378 H       1  UNL1        0.0633
     68 H          -5.9002    4.5229    1.8864 H       1  UNL1        0.0633
@<TRIPOS>BOND
     1     1    33    1
     2     2    35    1
     3     3    32    2
     4     4    14    1
     5     4    15    1
     6     4    16    1
     7     5    11    1
     8     5    17    1
     9     5    18    1
    10     6    24    1
    11     6    25    1
    12     6    27    1
    13     7    26    1
    14     7    28    1
    15     7    63    1
    16     8    23    1
    17     8    32   am
    18     8    65    1
    19     9    10   ar
    20     9    28   ar
    21    10    31   ar
    22    11    12    1
    23    11    13    1
    24    11    38    1
    25    12    14    1
    26    12    39    1
    27    12    40    1
    28    13    15    1
    29    13    41    1
    30    13    42    1
    31    14    43    1
    32    14    44    1
    33    15    45    1
    34    15    46    1
    35    16    19   ar
    36    16    20   ar
    37    17    47    1
    38    17    48    1
    39    17    49    1
    40    18    50    1
    41    18    51    1
    42    18    52    1
    43    19    21   ar
    44    19    53    1
    45    20    22   ar
    46    20    54    1
    47    21    23   ar
    48    21    55    1
    49    22    23   ar
    50    22    56    1
    51    24    26    1
    52    24    57    1
    53    24    58    1
    54    25    28   ar
    55    25    29   ar
    56    26    59    1
    57    26    60    1
    58    27    30    1
    59    27    61    1
    60    27    62    1
    61    29    31   ar
    62    29    64    1
    63    30    33   ar
    64    30    34   ar
    65    31    32    1
    66    33    36   ar
    67    34    35   ar
    68    34    66    1
    69    35    37   ar
    70    36    37   ar
    71    36    67    1
    72    37    68    1
