
 Saved by build model version 2112 build 1

 53 56  0  0  1  0  0  0  0  0  1 V2000
  32.93700  46.33100   6.62200 CL  0  0  0  0  0  0  0  0  0  0  0  0
  33.40200  46.01800   8.27300  C  0  0  0  0  0  0  0  0  0  0  0  0
  34.22200  47.00200   8.90000  C  0  0  0  0  0  0  0  0  0  0  0  0
  34.65600  46.84700  10.24100  C  0  0  0  0  0  0  0  0  0  0  0  0
  34.28500  45.70300  10.99800  C  0  0  0  0  0  0  0  0  0  0  0  0
  34.72200  45.60100  12.26500  F  0  0  0  0  0  0  0  0  0  0  0  0
  32.99500  44.82500   9.01200  C  0  0  0  0  0  0  0  0  0  0  0  0
  33.45500  44.68000  10.40500  C  0  0  0  0  0  0  0  0  0  0  0  0
  33.04200  43.30000  11.41400 CL  0  0  0  0  0  0  0  0  0  0  0  0
  32.09500  43.75000   8.30800  C  0  0  2  0  0  0  0  0  0  0  0  0
  32.77900  42.37000   8.28300  C  0  0  0  0  0  0  0  0  0  0  0  0
  30.79000  43.54100   8.95000  O  0  0  0  0  0  0  0  0  0  0  0  0
  29.79000  44.51000   9.12600  C  0  0  0  0  0  0  0  0  0  0  0  0
  29.68400  45.74700   8.39200  C  0  0  0  0  0  0  0  0  0  0  0  0
  28.76100  44.26700  10.09900  C  0  0  0  0  0  0  0  0  0  0  0  0
  28.79800  43.07600  10.85000  N  0  0  0  0  0  0  0  0  0  0  0  0
  27.73200  45.11500  10.35000  N  0  0  0  0  0  0  0  0  0  0  0  0
  27.66000  46.27800   9.64000  C  0  0  0  0  0  0  0  0  0  0  0  0
  28.60900  46.66100   8.64100  C  0  0  0  0  0  0  0  0  0  0  0  0
  28.49800  47.96800   7.86600  C  0  0  0  0  0  0  0  0  0  0  0  0
  29.54400  48.63800   7.09000  C  0  0  0  0  0  0  0  0  0  0  0  0
  27.38000  48.79300   7.73700  C  0  0  0  0  0  0  0  0  0  0  0  0
  27.82900  49.85400   6.92300  N  0  0  2  0  0  0  0  0  0  0  0  0
  29.06300  49.72000   6.58300  N  0  0  0  0  0  0  0  0  0  0  0  0
  27.01700  51.01700   6.47700  C  0  0  0  0  0  0  0  0  0  0  0  0
  26.81900  52.01700   7.63700  C  0  0  0  0  0  0  0  0  0  0  0  0
  25.97500  53.21800   7.14600  C  0  0  0  0  0  0  0  0  0  0  0  0
  24.67300  52.79000   6.55500  N  0  3  0  0  0  0  0  0  0  0  0  0
  24.83600  51.79100   5.46000  C  0  0  0  0  0  0  0  0  0  0  0  0
  25.64800  50.55600   5.91300  C  0  0  0  0  0  0  0  0  0  0  0  0
  25.79477  49.94620   5.13415  H  0  0  0  0  0  0  0  0  0  0  0  0
  25.14165  50.06340   6.62078  H  0  0  0  0  0  0  0  0  0  0  0  0
  23.93099  51.49150   5.15793  H  0  0  0  0  0  0  0  0  0  0  0  0
  25.30795  52.22476   4.69246  H  0  0  0  0  0  0  0  0  0  0  0  0
  24.10979  52.38763   7.27673  H  0  0  0  0  0  0  0  0  0  0  0  0
  24.20581  53.59458   6.18842  H  0  0  0  0  0  0  0  0  0  0  0  0
  25.79576  53.82507   7.92017  H  0  0  0  0  0  0  0  0  0  0  0  0
  26.49512  53.71849   6.45391  H  0  0  0  0  0  0  0  0  0  0  0  0
  26.34844  51.56297   8.39359  H  0  0  0  0  0  0  0  0  0  0  0  0
  27.70940  52.34180   7.95590  H  0  0  0  0  0  0  0  0  0  0  0  0
  27.51395  51.47866   5.74222  H  0  0  0  0  0  0  0  0  0  0  0  0
  26.47017  48.66222   8.13084  H  0  0  0  0  0  0  0  0  0  0  0  0
  30.48083  48.30847   6.97267  H  0  0  0  0  0  0  0  0  0  0  0  0
  26.89921  46.89879   9.82925  H  0  0  0  0  0  0  0  0  0  0  0  0
  29.53306  42.41431  10.70216  H  0  0  0  0  0  0  0  0  0  0  0  0
  28.08921  42.89211  11.53103  H  0  0  0  0  0  0  0  0  0  0  0  0
  30.37031  45.96988   7.69968  H  0  0  0  0  0  0  0  0  0  0  0  0
  33.64507  42.43232   7.78697  H  0  0  0  0  0  0  0  0  0  0  0  0
  32.96101  42.06616   9.21818  H  0  0  0  0  0  0  0  0  0  0  0  0
  32.17526  41.71559   7.82775  H  0  0  0  0  0  0  0  0  0  0  0  0
  31.95825  44.12254   7.39012  H  0  0  0  0  0  0  0  0  0  0  0  0
  35.23000  47.55113  10.65901  H  0  0  0  0  0  0  0  0  0  0  0  0
  34.49543  47.81470   8.38546  H  0  0  0  0  0  0  0  0  0  0  0  0
  1  2  1  0  0  0  0
  2  3  2  0  0  0  0
  2  7  1  0  0  0  0
  3  4  1  0  0  0  0
  3 53  1  0  0  0  0
  4  5  2  0  0  0  0
  4 52  1  0  0  0  0
  5  6  1  0  0  0  0
  5  8  1  0  0  0  0
  7  8  2  0  0  0  0
  7 10  1  0  0  0  0
  8  9  1  0  0  0  0
 10 11  1  0  0  0  0
 10 12  1  0  0  0  0
 10 51  1  0  0  0  0
 11 48  1  0  0  0  0
 11 49  1  0  0  0  0
 11 50  1  0  0  0  0
 12 13  1  0  0  0  0
 13 14  2  0  0  0  0
 13 15  1  0  0  0  0
 14 19  1  0  0  0  0
 14 47  1  0  0  0  0
 15 16  1  0  0  0  0
 15 17  2  0  0  0  0
 16 45  1  0  0  0  0
 16 46  1  0  0  0  0
 17 18  1  0  0  0  0
 18 19  2  0  0  0  0
 18 44  1  0  0  0  0
 19 20  1  0  0  0  0
 20 21  1  0  0  0  0
 20 22  2  0  0  0  0
 21 24  2  0  0  0  0
 21 43  1  0  0  0  0
 22 23  1  0  0  0  0
 22 42  1  0  0  0  0
 23 24  1  0  0  0  0
 23 25  1  0  0  0  0
 25 26  1  0  0  0  0
 25 30  1  0  0  0  0
 25 41  1  0  0  0  0
 26 27  1  0  0  0  0
 26 39  1  0  0  0  0
 26 40  1  0  0  0  0
 27 28  1  0  0  0  0
 27 37  1  0  0  0  0
 27 38  1  0  0  0  0
 28 29  1  0  0  0  0
 28 35  1  0  0  0  0
 28 36  1  0  0  0  0
 29 30  1  0  0  0  0
 29 33  1  0  0  0  0
 29 34  1  0  0  0  0
 30 31  1  0  0  0  0
 30 32  1  0  0  0  0
M  END
$$$$
