@<TRIPOS>MOLECULE
./intermediate_results/2xp2_ligand_reference.pdb
 53 56 0 0 0
SMALL
GASTEIGER

@<TRIPOS>ATOM
      1 CL         32.9370   46.3310    6.6220 Cl    9000  VGH9000    -0.0831
      2  C13       33.4020   46.0180    8.2730 C.ar  9000  VGH9000     0.0492
      3  C3        34.2220   47.0020    8.9000 C.ar  9000  VGH9000    -0.0402
      4  H3        34.4950   47.8150    8.3850 H     9000  VGH9000     0.0633
      5  C2        34.6560   46.8470   10.2410 C.ar  9000  VGH9000    -0.0236
      6  H2        35.2300   47.5510   10.6590 H     9000  VGH9000     0.0647
      7  C12       34.2850   45.7030   10.9980 C.ar  9000  VGH9000     0.1421
      8  F         34.7220   45.6010   12.2650 F     9000  VGH9000    -0.2039
      9  C17       32.9950   44.8250    9.0120 C.ar  9000  VGH9000     0.0318
     10  C18       33.4550   44.6800   10.4050 C.ar  9000  VGH9000     0.0841
     11 CL2        33.0420   43.3000   11.4140 Cl    9000  VGH9000    -0.0801
     12  C21       32.0950   43.7500    8.3080 C.3   9000  VGH9000     0.1253
     13  H21       31.9580   44.1230    7.3900 H     9000  VGH9000     0.0782
     14  C1        32.7790   42.3700    8.2830 C.3   9000  VGH9000    -0.0234
     15  H11       33.6450   42.4320    7.7870 H     9000  VGH9000     0.0269
     16  H12       32.9610   42.0660    9.2180 H     9000  VGH9000     0.0269
     17  H13       32.1750   41.7160    7.8280 H     9000  VGH9000     0.0269
     18  O27       30.7900   43.5410    8.9500 O.3   9000  VGH9000    -0.4810
     19  C15       29.7900   44.5100    9.1260 C.ar  9000  VGH9000     0.1613
     20  C4        29.6840   45.7470    8.3920 C.ar  9000  VGH9000    -0.0072
     21  H4        30.3700   45.9700    7.7000 H     9000  VGH9000     0.0662
     22  C19       28.7610   44.2670   10.0990 C.ar  9000  VGH9000     0.1583
     23  N22       28.7980   43.0760   10.8500 N.pl3 9000  VGH9000    -0.3402
     24 H221       29.5330   42.4140   10.7020 H     9000  VGH9000     0.1438
     25 H222       28.0890   42.8920   11.5310 H     9000  VGH9000     0.1438
     26  N23       27.7320   45.1150   10.3500 N.ar  9000  VGH9000    -0.2364
     27  C5        27.6600   46.2780    9.6400 C.ar  9000  VGH9000     0.0377
     28  H5        26.8990   46.8990    9.8290 H     9000  VGH9000     0.0836
     29  C14       28.6090   46.6610    8.6410 C.ar  9000  VGH9000     0.0068
     30  C16       28.4980   47.9680    7.8660 C.ar  9000  VGH9000     0.0211
     31  C6        29.5440   48.6380    7.0900 C.ar  9000  VGH9000     0.0571
     32  H6        30.4810   48.3080    6.9730 H     9000  VGH9000     0.0854
     33  C7        27.3800   48.7930    7.7370 C.ar  9000  VGH9000     0.0336
     34  H7        26.4700   48.6620    8.1310 H     9000  VGH9000     0.0832
     35  N26       27.8290   49.8540    6.9230 N.ar  9000  VGH9000    -0.2674
     36  N24       29.0630   49.7200    6.5830 N.ar  9000  VGH9000    -0.1788
     37  C20       27.0170   51.0170    6.4770 C.3   9000  VGH9000     0.0623
     38  H20       27.5140   51.4790    5.7420 H     9000  VGH9000     0.0548
     39  C8        26.8190   52.0170    7.6370 C.3   9000  VGH9000     0.0100
     40  H82       26.3480   51.5630    8.3940 H     9000  VGH9000     0.0338
     41  H83       27.7090   52.3420    7.9560 H     9000  VGH9000     0.0338
     42  C10       25.9750   53.2180    7.1460 C.3   9000  VGH9000    -0.0317
     43 H102       25.7960   53.8250    7.9200 H     9000  VGH9000     0.0814
     44 H103       26.4950   53.7180    6.4540 H     9000  VGH9000     0.0814
     45  N25       24.6730   52.7900    6.5550 N.4   9000  VGH9000     0.2271
     46 H251       24.1100   52.3880    7.2770 H     9000  VGH9000     0.2013
     47 H252       24.2060   53.5950    6.1880 H     9000  VGH9000     0.2013
     48  C11       24.8360   51.7910    5.4600 C.3   9000  VGH9000    -0.0317
     49 H112       23.9310   51.4910    5.1580 H     9000  VGH9000     0.0814
     50 H113       25.3080   52.2250    4.6920 H     9000  VGH9000     0.0814
     51  C9        25.6480   50.5560    5.9130 C.3   9000  VGH9000     0.0100
     52  H92       25.7950   49.9460    5.1340 H     9000  VGH9000     0.0338
     53  H93       25.1420   50.0630    6.6210 H     9000  VGH9000     0.0338
@<TRIPOS>UNITY_ATOM_ATTR
45 1
charge 1
@<TRIPOS>BOND
     1     1     2    1
     2     2     3   ar
     3     2     9   ar
     4     3     4    1
     5     3     5   ar
     6     5     6    1
     7     5     7   ar
     8     7     8    1
     9     7    10   ar
    10     9    10   ar
    11     9    12    1
    12    10    11    1
    13    12    13    1
    14    12    14    1
    15    12    18    1
    16    14    15    1
    17    14    16    1
    18    14    17    1
    19    18    19    1
    20    19    20   ar
    21    19    22   ar
    22    20    21    1
    23    20    29   ar
    24    22    23    1
    25    22    26   ar
    26    23    24    1
    27    23    25    1
    28    26    27   ar
    29    27    28    1
    30    27    29   ar
    31    29    30    1
    32    30    31   ar
    33    30    33   ar
    34    31    32    1
    35    31    36   ar
    36    33    34    1
    37    33    35   ar
    38    35    36   ar
    39    35    37    1
    40    37    38    1
    41    37    39    1
    42    37    51    1
    43    39    40    1
    44    39    41    1
    45    39    42    1
    46    42    43    1
    47    42    44    1
    48    42    45    1
    49    45    46    1
    50    45    47    1
    51    45    48    1
    52    48    49    1
    53    48    50    1
    54    48    51    1
    55    51    52    1
    56    51    53    1
