
  CDK     0722220018

 30 34  0  0  0  0  0  0  0  0999 V2000
   -6.7777    7.1424    0.0000 N   0  0  0  0  0  0  0  0  0  0  0  0
   -5.5642    6.2607    0.0000 C   0  0  0  0  0  0  0  0  0  0  0  0
   -7.9912    6.2607    0.0000 C   0  0  0  0  0  0  0  0  0  0  0  0
   -6.0277    4.8341    0.0000 N   0  0  0  0  0  0  0  0  0  0  0  0
   -4.1376    6.7242    0.0000 C   0  0  0  0  0  0  0  0  0  0  0  0
   -7.5277    4.8341    0.0000 N   0  0  0  0  0  0  0  0  0  0  0  0
   -9.2902    7.0107    0.0000 C   0  0  0  0  0  0  0  0  0  0  0  0
   -3.8257    8.1914    0.0000 C   0  0  0  0  0  0  0  0  0  0  0  0
   -3.0229    5.7205    0.0000 C   0  0  0  0  0  0  0  0  0  0  0  0
   -9.2902    8.5107    0.0000 N   0  0  0  0  0  0  0  0  0  0  0  0
  -10.5893    6.2607    0.0000 C   0  0  0  0  0  0  0  0  0  0  0  0
   -2.3991    8.6550    0.0000 C   0  0  0  0  0  0  0  0  0  0  0  0
   -1.5963    6.1840    0.0000 C   0  0  0  0  0  0  0  0  0  0  0  0
  -10.5893    9.2607    0.0000 N   0  0  0  0  0  0  0  0  0  0  0  0
  -11.8883    7.0107    0.0000 C   0  0  0  0  0  0  0  0  0  0  0  0
   -1.2844    7.6513    0.0000 N   0  0  0  0  0  0  0  0  0  0  0  0
  -11.8883    8.5107    0.0000 C   0  0  0  0  0  0  0  0  0  0  0  0
  -13.1874    6.2607    0.0000 N   0  0  0  0  0  0  0  0  0  0  0  0
  -13.1874    9.2607    0.0000 N   0  0  0  0  0  0  0  0  0  0  0  0
  -14.4864    7.0107    0.0000 C   0  0  0  0  0  0  0  0  0  0  0  0
  -13.1874    4.7607    0.0000 C   0  0  0  0  0  0  0  0  0  0  0  0
  -14.4864    8.5107    0.0000 C   0  0  0  0  0  0  0  0  0  0  0  0
  -14.4864    4.0107    0.0000 C   0  0  0  0  0  0  0  0  0  0  0  0
  -14.4864    2.5107    0.0000 C   0  0  0  0  0  0  0  0  0  0  0  0
  -15.7854    4.7607    0.0000 C   0  0  0  0  0  0  0  0  0  0  0  0
  -15.7854    1.7607    0.0000 C   0  0  0  0  0  0  0  0  0  0  0  0
  -13.1874    1.7607    0.0000 Cl  0  0  0  0  0  0  0  0  0  0  0  0
  -17.0845    4.0107    0.0000 C   0  0  0  0  0  0  0  0  0  0  0  0
  -17.0845    2.5107    0.0000 C   0  0  0  0  0  0  0  0  0  0  0  0
  -18.3835    4.7607    0.0000 Cl  0  0  0  0  0  0  0  0  0  0  0  0
  1  2  1  0  0  0  0 
  3  1  2  0  0  0  0 
  2  4  2  0  0  0  0 
  2  5  1  0  0  0  0 
  6  3  1  0  0  0  0 
  7  3  1  0  0  0  0 
  4  6  1  0  0  0  0 
  5  8  1  0  0  0  0 
  9  5  1  0  0  0  0 
 10  7  2  0  0  0  0 
  7 11  1  0  0  0  0 
  8 12  1  0  0  0  0 
 13  9  1  0  0  0  0 
 14 10  1  0  0  0  0 
 11 15  2  0  0  0  0 
 12 16  1  0  0  0  0 
 16 13  1  0  0  0  0 
 17 14  2  0  0  0  0 
 17 15  1  0  0  0  0 
 15 18  1  0  0  0  0 
 19 17  1  0  0  0  0 
 18 20  1  0  0  0  0 
 18 21  1  0  0  0  0 
 22 19  1  0  0  0  0 
 20 22  1  0  0  0  0 
 21 23  1  0  0  0  0 
 23 24  2  0  0  0  0 
 25 23  1  0  0  0  0 
 24 26  1  0  0  0  0 
 24 27  1  0  0  0  0 
 28 25  2  0  0  0  0 
 26 29  2  0  0  0  0 
 29 28  1  0  0  0  0 
 28 30  1  0  0  0  0 
M  END
