
  CDK     0722220020

 34 38  0  0  0  0  0  0  0  0999 V2000
   -9.2902    7.0107    0.0000 C   0  0  0  0  0  0  0  0  0  0  0  0
   -9.2902    8.5107    0.0000 N   0  0  0  0  0  0  0  0  0  0  0  0
  -10.5893    6.2607    0.0000 C   0  0  0  0  0  0  0  0  0  0  0  0
  -10.5893    9.2607    0.0000 N   0  0  0  0  0  0  0  0  0  0  0  0
  -11.8883    7.0107    0.0000 C   0  0  0  0  0  0  0  0  0  0  0  0
  -11.8883    8.5107    0.0000 C   0  0  0  0  0  0  0  0  0  0  0  0
  -13.1874    6.2607    0.0000 N   0  0  0  0  0  0  0  0  0  0  0  0
  -13.1874    9.2607    0.0000 N   0  0  0  0  0  0  0  0  0  0  0  0
  -14.4864    7.0107    0.0000 C   0  0  0  0  0  0  0  0  0  0  0  0
  -13.1874    4.7607    0.0000 C   0  0  0  0  0  0  0  0  0  0  0  0
  -14.4864    8.5107    0.0000 C   0  0  0  0  0  0  0  0  0  0  0  0
  -14.4864    4.0107    0.0000 C   0  0  0  0  0  0  0  0  0  0  0  0
  -14.4864    2.5107    0.0000 C   0  0  0  0  0  0  0  0  0  0  0  0
  -15.7854    4.7607    0.0000 C   0  0  0  0  0  0  0  0  0  0  0  0
  -15.7854    1.7607    0.0000 C   0  0  0  0  0  0  0  0  0  0  0  0
  -13.1874    1.7607    0.0000 Cl  0  0  0  0  0  0  0  0  0  0  0  0
  -17.0845    4.0107    0.0000 C   0  0  0  0  0  0  0  0  0  0  0  0
  -17.0845    2.5107    0.0000 C   0  0  0  0  0  0  0  0  0  0  0  0
  -18.3835    4.7607    0.0000 Cl  0  0  0  0  0  0  0  0  0  0  0  0
   -7.9912    6.2607    0.0000 C   0  0  0  0  0  0  0  0  0  0  0  0
   -6.6922    7.0107    0.0000 N   0  0  0  0  0  0  0  0  0  0  0  0
   -7.9912    4.7607    0.0000 O   0  0  0  0  0  0  0  0  0  0  0  0
   -5.3931    6.2607    0.0000 C   0  0  0  0  0  0  0  0  0  0  0  0
   -4.0941    7.0107    0.0000 C   0  0  0  0  0  0  0  0  0  0  0  0
   -2.7951    6.2607    0.0000 C   0  0  0  0  0  0  0  0  0  0  0  0
   -2.7951    4.7607    0.0000 C   0  0  0  0  0  0  0  0  0  0  0  0
   -4.0941    4.0107    0.0000 C   0  0  0  0  0  0  0  0  0  0  0  0
   -5.3931    4.7607    0.0000 C   0  0  0  0  0  0  0  0  0  0  0  0
   -1.4960    4.0107    0.0000 N   0  0  0  0  0  0  0  0  0  0  0  0
   -0.1970    4.7607    0.0000 C   0  0  0  0  0  0  0  0  0  0  0  0
    1.1021    4.0107    0.0000 C   0  0  0  0  0  0  0  0  0  0  0  0
    1.1021    2.5107    0.0000 O   0  0  0  0  0  0  0  0  0  0  0  0
   -0.1970    1.7607    0.0000 C   0  0  0  0  0  0  0  0  0  0  0  0
   -1.4960    2.5107    0.0000 C   0  0  0  0  0  0  0  0  0  0  0  0
  2  1  2  0  0  0  0 
  1  3  1  0  0  0  0 
  4  2  1  0  0  0  0 
  3  5  2  0  0  0  0 
  6  4  2  0  0  0  0 
  6  5  1  0  0  0  0 
  5  7  1  0  0  0  0 
  8  6  1  0  0  0  0 
  7  9  1  0  0  0  0 
  7 10  1  0  0  0  0 
 11  8  1  0  0  0  0 
  9 11  1  0  0  0  0 
 10 12  1  0  0  0  0 
 12 13  2  0  0  0  0 
 14 12  1  0  0  0  0 
 13 15  1  0  0  0  0 
 13 16  1  0  0  0  0 
 17 14  2  0  0  0  0 
 15 18  2  0  0  0  0 
 18 17  1  0  0  0  0 
 17 19  1  0  0  0  0 
  1 20  1  0  0  0  0 
 20 21  1  0  0  0  0 
 20 22  2  0  0  0  0 
 21 23  1  0  0  0  0 
 23 24  1  0  0  0  0 
 24 25  2  0  0  0  0 
 25 26  1  0  0  0  0 
 26 27  2  0  0  0  0 
 27 28  1  0  0  0  0 
 28 23  2  0  0  0  0 
 26 29  1  0  0  0  0 
 29 30  1  0  0  0  0 
 30 31  1  0  0  0  0 
 31 32  1  0  0  0  0 
 32 33  1  0  0  0  0 
 33 34  1  0  0  0  0 
 34 29  1  0  0  0  0 
M  END
