
  CDK     0809221102

 41 45  0  0  0  0  0  0  0  0999 V2000
   -9.2902    7.0107    0.0000 C   0  0  0  0  0  0  0  0  0  0  0  0
   -9.2902    8.5107    0.0000 N   0  0  0  0  0  0  0  0  0  0  0  0
  -10.5893    6.2607    0.0000 C   0  0  0  0  0  0  0  0  0  0  0  0
   -7.9912    6.2607    0.0000 C   0  0  0  0  0  0  0  0  0  0  0  0
  -10.5893    9.2607    0.0000 N   0  0  0  0  0  0  0  0  0  0  0  0
  -11.8883    7.0107    0.0000 C   0  0  0  0  0  0  0  0  0  0  0  0
   -6.6922    7.0107    0.0000 N   0  0  0  0  0  0  0  0  0  0  0  0
   -7.9912    4.7607    0.0000 O   0  0  0  0  0  0  0  0  0  0  0  0
  -11.8883    8.5107    0.0000 C   0  0  0  0  0  0  0  0  0  0  0  0
  -13.1874    6.2607    0.0000 N   0  0  0  0  0  0  0  0  0  0  0  0
   -5.3931    6.2607    0.0000 C   0  0  0  0  0  0  0  0  0  0  0  0
  -13.1874    9.2607    0.0000 N   0  0  0  0  0  0  0  0  0  0  0  0
  -14.4864    7.0107    0.0000 C   0  0  0  0  0  0  0  0  0  0  0  0
  -13.1874    4.7607    0.0000 C   0  0  0  0  0  0  0  0  0  0  0  0
   -4.0941    7.0107    0.0000 C   0  0  0  0  0  0  0  0  0  0  0  0
   -5.3931    4.7607    0.0000 C   0  0  0  0  0  0  0  0  0  0  0  0
  -14.4864    8.5107    0.0000 C   0  0  0  0  0  0  0  0  0  0  0  0
  -14.4864    4.0107    0.0000 C   0  0  0  0  0  0  0  0  0  0  0  0
   -2.7951    6.2607    0.0000 C   0  0  0  0  0  0  0  0  0  0  0  0
   -4.0941    4.0107    0.0000 C   0  0  0  0  0  0  0  0  0  0  0  0
  -14.4864    2.5107    0.0000 C   0  0  0  0  0  0  0  0  0  0  0  0
  -15.7854    4.7607    0.0000 C   0  0  0  0  0  0  0  0  0  0  0  0
   -2.7951    4.7607    0.0000 C   0  0  0  0  0  0  0  0  0  0  0  0
  -15.7854    1.7607    0.0000 C   0  0  0  0  0  0  0  0  0  0  0  0
  -13.1874    1.7607    0.0000 O   0  0  0  0  0  0  0  0  0  0  0  0
  -17.0845    4.0107    0.0000 C   0  0  0  0  0  0  0  0  0  0  0  0
   -1.4961    5.5107    0.0000 C   0  0  0  0  0  0  0  0  0  0  0  0
  -17.0845    2.5107    0.0000 C   0  0  0  0  0  0  0  0  0  0  0  0
  -13.1874    0.2607    0.0000 C   0  0  0  0  0  0  0  0  0  0  0  0
  -18.3835    4.7607    0.0000 Cl  0  0  0  0  0  0  0  0  0  0  0  0
   -1.4960    4.0107    0.0000 N   0  0  0  0  0  0  0  0  0  0  0  0
   -0.7461    6.8098    0.0000 O   0  0  0  0  0  0  0  0  0  0  0  0
   -0.1969    3.2608    0.0000 C   0  0  0  0  0  0  0  0  0  0  0  0
   -2.7950    3.2606    0.0000 C   0  0  0  0  0  0  0  0  0  0  0  0
   -0.1969    1.7608    0.0000 C   0  0  0  0  0  0  0  0  0  0  0  0
   -2.7949    1.7607    0.0000 C   0  0  0  0  0  0  0  0  0  0  0  0
   -1.4959    1.0107    0.0000 N   0  0  0  0  0  0  0  0  0  0  0  0
   -1.4958   -0.4893    0.0000 C   0  0  0  0  0  0  0  0  0  0  0  0
  -11.8331   -0.3699    0.0000 F   0  0  0  0  0  0  0  0  0  0  0  0
  -13.1321   -1.1859    0.0000 F   0  0  0  0  0  0  0  0  0  0  0  0
  -14.6947   -0.5677    0.0000 F   0  0  0  0  0  0  0  0  0  0  0  0
  2  1  2  0  0  0  0 
  1  3  1  0  0  0  0 
  1  4  1  0  0  0  0 
  5  2  1  0  0  0  0 
  3  6  2  0  0  0  0 
  4  7  1  0  0  0  0 
  4  8  2  0  0  0  0 
  9  5  2  0  0  0  0 
  9  6  1  0  0  0  0 
  6 10  1  0  0  0  0 
  7 11  1  0  0  0  0 
 12  9  1  0  0  0  0 
 10 13  1  0  0  0  0 
 10 14  1  0  0  0  0 
 11 15  1  0  0  0  0 
 16 11  2  0  0  0  0 
 17 12  1  0  0  0  0 
 13 17  1  0  0  0  0 
 14 18  1  0  0  0  0 
 15 19  2  0  0  0  0 
 20 16  1  0  0  0  0 
 18 21  2  0  0  0  0 
 22 18  1  0  0  0  0 
 19 23  1  0  0  0  0 
 23 20  2  0  0  0  0 
 21 24  1  0  0  0  0 
 21 25  1  0  0  0  0 
 26 22  2  0  0  0  0 
 23 27  1  0  0  0  0 
 24 28  2  0  0  0  0 
 25 29  1  0  0  0  0 
 28 26  1  0  0  0  0 
 26 30  1  0  0  0  0 
 27 31  1  0  0  0  0 
 27 32  2  0  0  0  0 
 31 33  1  0  0  0  0 
 34 31  1  0  0  0  0 
 33 35  1  0  0  0  0 
 36 34  1  0  0  0  0 
 35 37  1  0  0  0  0 
 37 36  1  0  0  0  0 
 37 38  1  0  0  0  0 
 29 39  1  0  0  0  0 
 29 40  1  0  0  0  0 
 29 41  1  0  0  0  0 
M  END
