122582637
  -OEChem-07162207163D

 68 72  0     1  0  0  0  0  0999 V2000
   -4.5134   -2.8619    2.7054 Cl  0  0  0  0  0  0  0  0  0  0  0  0
   -6.6499   -2.6352   -3.1492 Cl  0  0  0  0  0  0  0  0  0  0  0  0
    6.4794    0.4049    2.4519 O   0  0  0  0  0  0  0  0  0  0  0  0
    2.7602    2.9501   -0.6187 O   0  0  0  0  0  0  0  0  0  0  0  0
   -0.5730   -0.3442    1.3817 O   0  0  0  0  0  0  0  0  0  0  0  0
    6.6789   -0.8606    0.4966 N   0  0  0  0  0  0  0  0  0  0  0  0
    8.3677   -1.7646   -1.6330 N   0  0  0  0  0  0  0  0  0  0  0  0
   -5.4599    0.8493    0.5173 N   0  0  1  0  0  0  0  0  0  0  0  0
   -5.1844    3.1783   -1.0326 N   0  0  0  0  0  0  0  0  0  0  0  0
   -2.8389    3.0403   -0.8557 N   0  0  0  0  0  0  0  0  0  0  0  0
    0.6402    1.3507    0.2941 N   0  0  0  0  0  0  0  0  0  0  0  0
   -1.7002    2.4282   -0.4364 N   0  0  0  0  0  0  0  0  0  0  0  0
    8.0624   -1.2503    0.7590 C   0  0  0  0  0  0  0  0  0  0  0  0
    6.0927   -1.4576   -0.7086 C   0  0  0  0  0  0  0  0  0  0  0  0
    8.9382   -1.0564   -0.4777 C   0  0  0  0  0  0  0  0  0  0  0  0
    7.0119   -1.2736   -1.9181 C   0  0  0  0  0  0  0  0  0  0  0  0
    6.0074   -0.0415    1.4073 C   0  0  0  0  0  0  0  0  0  0  0  0
    9.2273   -1.6097   -2.8058 C   0  0  0  0  0  0  0  0  0  0  0  0
   -6.5983    1.7459    0.3210 C   0  0  0  0  0  0  0  0  0  0  0  0
   -6.4570    2.4948   -0.9969 C   0  0  0  0  0  0  0  0  0  0  0  0
   -4.1942    1.3486    0.2099 C   0  0  0  0  0  0  0  0  0  0  0  0
   -5.6331   -0.3115    1.3752 C   0  0  0  0  0  0  0  0  0  0  0  0
    4.6148    0.3239    1.1157 C   0  0  0  0  0  0  0  0  0  0  0  0
   -4.0558    2.5184   -0.5589 C   0  0  0  0  0  0  0  0  0  0  0  0
   -3.0110    0.7305    0.6187 C   0  0  0  0  0  0  0  0  0  0  0  0
   -5.6014   -1.5765    0.5630 C   0  0  0  0  0  0  0  0  0  0  0  0
    4.3347    1.4752    0.3797 C   0  0  0  0  0  0  0  0  0  0  0  0
    3.5723   -0.4809    1.5754 C   0  0  0  0  0  0  0  0  0  0  0  0
   -1.7988    1.2973    0.2797 C   0  0  0  0  0  0  0  0  0  0  0  0
    1.9697    1.0171    0.5630 C   0  0  0  0  0  0  0  0  0  0  0  0
    3.0121    1.8218    0.1032 C   0  0  0  0  0  0  0  0  0  0  0  0
    2.2498   -0.1341    1.2992 C   0  0  0  0  0  0  0  0  0  0  0  0
   -5.1113   -2.7720    1.0888 C   0  0  0  0  0  0  0  0  0  0  0  0
   -6.0773   -1.5343   -0.7475 C   0  0  0  0  0  0  0  0  0  0  0  0
   -0.5166    0.6760    0.7035 C   0  0  0  0  0  0  0  0  0  0  0  0
   -6.0635   -2.6875   -1.5321 C   0  0  0  0  0  0  0  0  0  0  0  0
   -5.0972   -3.9251    0.3040 C   0  0  0  0  0  0  0  0  0  0  0  0
   -5.5736   -3.8829   -1.0063 C   0  0  0  0  0  0  0  0  0  0  0  0
    2.6889    2.8091   -2.0359 C   0  0  0  0  0  0  0  0  0  0  0  0
    8.0494   -2.3052    1.0597 H   0  0  0  0  0  0  0  0  0  0  0  0
    8.4728   -0.6773    1.5969 H   0  0  0  0  0  0  0  0  0  0  0  0
    5.1101   -1.0368   -0.9327 H   0  0  0  0  0  0  0  0  0  0  0  0
    5.9490   -2.5245   -0.4976 H   0  0  0  0  0  0  0  0  0  0  0  0
    9.0383    0.0159   -0.6928 H   0  0  0  0  0  0  0  0  0  0  0  0
    9.9399   -1.4441   -0.2569 H   0  0  0  0  0  0  0  0  0  0  0  0
    6.5837   -1.8250   -2.7637 H   0  0  0  0  0  0  0  0  0  0  0  0
    7.0380   -0.2114   -2.1964 H   0  0  0  0  0  0  0  0  0  0  0  0
    8.8238   -2.1723   -3.6549 H   0  0  0  0  0  0  0  0  0  0  0  0
   10.2255   -2.0152   -2.6068 H   0  0  0  0  0  0  0  0  0  0  0  0
    9.3345   -0.5611   -3.1063 H   0  0  0  0  0  0  0  0  0  0  0  0
   -6.6478    2.4532    1.1589 H   0  0  0  0  0  0  0  0  0  0  0  0
   -7.5394    1.1836    0.3137 H   0  0  0  0  0  0  0  0  0  0  0  0
   -6.5196    1.7998   -1.8428 H   0  0  0  0  0  0  0  0  0  0  0  0
   -7.2686    3.2213   -1.1077 H   0  0  0  0  0  0  0  0  0  0  0  0
   -6.6179   -0.2729    1.8610 H   0  0  0  0  0  0  0  0  0  0  0  0
   -4.9152   -0.2876    2.2000 H   0  0  0  0  0  0  0  0  0  0  0  0
   -5.0610    4.0045   -1.6041 H   0  0  0  0  0  0  0  0  0  0  0  0
   -3.0251   -0.1882    1.1943 H   0  0  0  0  0  0  0  0  0  0  0  0
    5.1455    2.1044    0.0199 H   0  0  0  0  0  0  0  0  0  0  0  0
    3.7812   -1.3809    2.1482 H   0  0  0  0  0  0  0  0  0  0  0  0
    1.5047   -0.8139    1.6860 H   0  0  0  0  0  0  0  0  0  0  0  0
   -6.4869   -0.6269   -1.1799 H   0  0  0  0  0  0  0  0  0  0  0  0
    0.5074    2.1988   -0.2527 H   0  0  0  0  0  0  0  0  0  0  0  0
   -4.7183   -4.8644    0.6989 H   0  0  0  0  0  0  0  0  0  0  0  0
   -5.5565   -4.7892   -1.6062 H   0  0  0  0  0  0  0  0  0  0  0  0
    2.4450    3.7847   -2.4651 H   0  0  0  0  0  0  0  0  0  0  0  0
    1.9067    2.0976   -2.3187 H   0  0  0  0  0  0  0  0  0  0  0  0
    3.6543    2.4827   -2.4357 H   0  0  0  0  0  0  0  0  0  0  0  0
  1 33  1  0  0  0  0
  2 36  1  0  0  0  0
  3 17  2  0  0  0  0
  4 31  1  0  0  0  0
  4 39  1  0  0  0  0
  5 35  2  0  0  0  0
  6 13  1  0  0  0  0
  6 14  1  0  0  0  0
  6 17  1  0  0  0  0
  7 15  1  0  0  0  0
  7 16  1  0  0  0  0
  7 18  1  0  0  0  0
  8 19  1  0  0  0  0
  8 21  1  0  0  0  0
  8 22  1  0  0  0  0
  9 20  1  0  0  0  0
  9 24  1  0  0  0  0
  9 57  1  0  0  0  0
 10 12  1  0  0  0  0
 10 24  2  0  0  0  0
 11 30  1  0  0  0  0
 11 35  1  0  0  0  0
 11 63  1  0  0  0  0
 12 29  2  0  0  0  0
 13 15  1  0  0  0  0
 13 40  1  0  0  0  0
 13 41  1  0  0  0  0
 14 16  1  0  0  0  0
 14 42  1  0  0  0  0
 14 43  1  0  0  0  0
 15 44  1  0  0  0  0
 15 45  1  0  0  0  0
 16 46  1  0  0  0  0
 16 47  1  0  0  0  0
 17 23  1  0  0  0  0
 18 48  1  0  0  0  0
 18 49  1  0  0  0  0
 18 50  1  0  0  0  0
 19 20  1  0  0  0  0
 19 51  1  0  0  0  0
 19 52  1  0  0  0  0
 20 53  1  0  0  0  0
 20 54  1  0  0  0  0
 21 24  1  0  0  0  0
 21 25  2  0  0  0  0
 22 26  1  0  0  0  0
 22 55  1  0  0  0  0
 22 56  1  0  0  0  0
 23 27  2  0  0  0  0
 23 28  1  0  0  0  0
 25 29  1  0  0  0  0
 25 58  1  0  0  0  0
 26 33  2  0  0  0  0
 26 34  1  0  0  0  0
 27 31  1  0  0  0  0
 27 59  1  0  0  0  0
 28 32  2  0  0  0  0
 28 60  1  0  0  0  0
 29 35  1  0  0  0  0
 30 31  2  0  0  0  0
 30 32  1  0  0  0  0
 32 61  1  0  0  0  0
 33 37  1  0  0  0  0
 34 36  2  0  0  0  0
 34 62  1  0  0  0  0
 36 38  1  0  0  0  0
 37 38  2  0  0  0  0
 37 64  1  0  0  0  0
 38 65  1  0  0  0  0
 39 66  1  0  0  0  0
 39 67  1  0  0  0  0
 39 68  1  0  0  0  0
M  END
> <PUBCHEM_COMPOUND_CID>
122582637

> <PUBCHEM_CONFORMER_RMSD>
1.2

> <PUBCHEM_CONFORMER_DIVERSEORDER>
1
54
91
33
9
99
133
86
132
2
114
68
48
20
70
108
21
121
137
89
109
112
120
31
95
96
73
93
92
58
63
127
36
44
79
27
6
141
124
104
32
50
143
134
140
69
59
74
115
55
142
53
110
57
17
122
11
102
22
71
111
81
14
56
116
139
64
85
66
49
88
3
105
61
45
37
130
83
94
62
67
136
46
101
78
135
106
28
117
34
13
129
41
98
131
128
65
113
84
118
77
39
87
42
26
107
60
15
40
125
47
4
76
16
24
43
82
97
75
7
10
18
35
8
23
103
119
25
100
30
51
80
72
38
138
19
123
52
90
12
126
29
5

> <PUBCHEM_MMFF94_PARTIAL_CHARGES>
48
1 -0.18
10 -0.31
11 -0.55
12 -0.31
13 0.3
14 0.3
15 0.27
16 0.27
17 0.54
18 0.27
19 0.37
2 -0.18
20 0.37
21 0.1
22 0.51
23 0.09
24 0.41
25 -0.15
26 -0.14
27 -0.15
28 -0.15
29 0.4
3 -0.57
30 0.12
31 0.08
32 -0.15
33 0.18
34 -0.15
35 0.54
36 0.18
37 -0.15
38 -0.15
39 0.28
4 -0.36
5 -0.57
57 0.4
58 0.15
59 0.15
6 -0.66
60 0.15
61 0.15
62 0.15
63 0.37
64 0.15
65 0.15
7 -0.81
8 -0.84
9 -0.87

> <PUBCHEM_EFFECTIVE_ROTOR_COUNT>
10

> <PUBCHEM_PHARMACOPHORE_FEATURES>
14
1 11 donor
1 12 acceptor
1 3 acceptor
1 4 acceptor
1 5 acceptor
1 7 cation
1 8 cation
1 9 donor
3 9 10 24 cation
6 10 12 21 24 25 29 rings
6 23 27 28 30 31 32 rings
6 26 33 34 36 37 38 rings
6 6 7 13 14 15 16 rings
6 8 9 19 20 21 24 rings

> <PUBCHEM_HEAVY_ATOM_COUNT>
39

> <PUBCHEM_ATOM_DEF_STEREO_COUNT>
0

> <PUBCHEM_ATOM_UDEF_STEREO_COUNT>
0

> <PUBCHEM_BOND_DEF_STEREO_COUNT>
0

> <PUBCHEM_BOND_UDEF_STEREO_COUNT>
0

> <PUBCHEM_ISOTOPIC_ATOM_COUNT>
0

> <PUBCHEM_COMPONENT_COUNT>
1

> <PUBCHEM_CACTVS_TAUTO_COUNT>
29

> <PUBCHEM_CONFORMER_ID>
074E766D00000001

> <PUBCHEM_MMFF94_ENERGY>
137.3917

> <PUBCHEM_FEATURE_SELFOVERLAP>
71.083

> <PUBCHEM_SHAPE_FINGERPRINT>
10677351 14 18413386562187715756
11505856 67 14491569219950847247
11761917 87 16558483993990543726
11828042 291 15937251068344234282
11963148 33 18188482468344630698
12120059 9 18270954645522178778
12124843 1 17825367834359627975
12645989 146 18335139808111496340
13782708 43 18272369823141983730
14344974 204 18130221691623966495
15082195 135 17315358278313206996
15352257 5 18131353003326251154
15361156 5 17676214541479707137
15448158 91 18270681008211774339
16989713 51 18409163320803315711
16994733 274 10953459635539456574
17324776 126 17411880049657725919
20982279 24 16486711173622290406
21792965 169 18041286568856529471
21867018 265 18409741659893584206
23522609 53 16951988141451444068
23576562 1 17749967647120056332
249057 3 18114458981923345733
25269216 80 18113911471585906946
335507 130 18186528691245799354
397830 11 18129365159322874008
42767 24 18341895224806488815
4625314 4 18412260631978991648
49967989 163 18041001790496665355
504579 68 17748826340706255335
5937810 71 13118275954327041015
9831232 110 18343304735185060838

> <PUBCHEM_SHAPE_MULTIPOLES>
753.87
28.63
4.44
2.33
44.01
0.87
0.78
19.85
10.29
-9.3
1.91
0.82
1.68
1.68

> <PUBCHEM_SHAPE_SELFOVERLAP>
1609.671

> <PUBCHEM_SHAPE_VOLUME>
419.5

> <PUBCHEM_COORDINATE_TYPE>
2
5
10

$$$$
