121478218
  -OEChem-07162207193D

 64 68  0     1  0  0  0  0  0999 V2000
   -2.4087    3.7286   -0.7881 Cl  0  0  0  0  0  0  0  0  0  0  0  0
   -6.7617    1.3119    2.9675 Cl  0  0  0  0  0  0  0  0  0  0  0  0
    5.0083    0.8346    2.5358 O   0  0  0  0  0  0  0  0  0  0  0  0
    0.4932   -0.0694    0.1090 O   0  0  0  0  0  0  0  0  0  0  0  0
    6.3084    2.3053   -2.0583 N   0  0  0  0  0  0  0  0  0  0  0  0
    5.7143    0.8038    0.3074 N   0  0  0  0  0  0  0  0  0  0  0  0
   -4.3795   -0.1690   -1.4077 N   0  0  1  0  0  0  0  0  0  0  0  0
   -4.8985   -2.9316   -1.3871 N   0  0  0  0  0  0  0  0  0  0  0  0
   -2.6826   -3.3613   -0.7114 N   0  0  0  0  0  0  0  0  0  0  0  0
    1.0555   -2.3324    0.4115 N   0  0  0  0  0  0  0  0  0  0  0  0
   -1.4385   -2.9546   -0.3452 N   0  0  0  0  0  0  0  0  0  0  0  0
    5.8450    0.1237   -0.9860 C   0  0  0  0  0  0  0  0  0  0  0  0
    6.4103    2.0856    0.3953 C   0  0  0  0  0  0  0  0  0  0  0  0
    5.5159    1.0701   -2.1424 C   0  0  0  0  0  0  0  0  0  0  0  0
    6.0564    2.9916   -0.7828 C   0  0  0  0  0  0  0  0  0  0  0  0
   -5.5485   -0.7069   -2.1023 C   0  0  0  0  0  0  0  0  0  0  0  0
    6.0056    3.1875   -3.1846 C   0  0  0  0  0  0  0  0  0  0  0  0
    5.0612    0.2940    1.4320 C   0  0  0  0  0  0  0  0  0  0  0  0
   -6.0029   -2.0014   -1.4424 C   0  0  0  0  0  0  0  0  0  0  0  0
   -3.3820   -1.0733   -1.0431 C   0  0  0  0  0  0  0  0  0  0  0  0
   -4.1185    1.2584   -1.4955 C   0  0  0  0  0  0  0  0  0  0  0  0
   -3.6387   -2.4562   -1.0402 C   0  0  0  0  0  0  0  0  0  0  0  0
    4.3789   -1.0011    1.3099 C   0  0  0  0  0  0  0  0  0  0  0  0
   -4.3486    1.9193   -0.1647 C   0  0  0  0  0  0  0  0  0  0  0  0
   -2.1012   -0.6785   -0.6514 C   0  0  0  0  0  0  0  0  0  0  0  0
    3.0409   -1.0515    0.9188 C   0  0  0  0  0  0  0  0  0  0  0  0
   -1.1694   -1.6400   -0.3158 C   0  0  0  0  0  0  0  0  0  0  0  0
    5.0701   -2.1812    1.5849 C   0  0  0  0  0  0  0  0  0  0  0  0
    2.3940   -2.2819    0.8024 C   0  0  0  0  0  0  0  0  0  0  0  0
   -3.6181    3.0393    0.2324 C   0  0  0  0  0  0  0  0  0  0  0  0
   -5.3210    1.3850    0.6807 C   0  0  0  0  0  0  0  0  0  0  0  0
    0.2077   -1.2620    0.0971 C   0  0  0  0  0  0  0  0  0  0  0  0
    4.4231   -3.4116    1.4688 C   0  0  0  0  0  0  0  0  0  0  0  0
    3.0852   -3.4620    1.0773 C   0  0  0  0  0  0  0  0  0  0  0  0
   -5.5629    1.9710    1.9234 C   0  0  0  0  0  0  0  0  0  0  0  0
   -3.8602    3.6253    1.4750 C   0  0  0  0  0  0  0  0  0  0  0  0
   -4.8326    3.0912    2.3203 C   0  0  0  0  0  0  0  0  0  0  0  0
    6.8834   -0.2224   -1.0600 H   0  0  0  0  0  0  0  0  0  0  0  0
    5.2047   -0.7590   -1.0464 H   0  0  0  0  0  0  0  0  0  0  0  0
    6.1708    2.5914    1.3364 H   0  0  0  0  0  0  0  0  0  0  0  0
    7.4857    1.8694    0.4049 H   0  0  0  0  0  0  0  0  0  0  0  0
    5.7295    0.5511   -3.0845 H   0  0  0  0  0  0  0  0  0  0  0  0
    4.4420    1.3004   -2.1291 H   0  0  0  0  0  0  0  0  0  0  0  0
    5.0037    3.2959   -0.7092 H   0  0  0  0  0  0  0  0  0  0  0  0
    6.6681    3.8993   -0.7176 H   0  0  0  0  0  0  0  0  0  0  0  0
   -5.2916   -0.8843   -3.1547 H   0  0  0  0  0  0  0  0  0  0  0  0
   -6.3757    0.0124   -2.0860 H   0  0  0  0  0  0  0  0  0  0  0  0
    6.2336    2.6905   -4.1341 H   0  0  0  0  0  0  0  0  0  0  0  0
    6.6276    4.0886   -3.1449 H   0  0  0  0  0  0  0  0  0  0  0  0
    4.9536    3.4949   -3.2000 H   0  0  0  0  0  0  0  0  0  0  0  0
   -6.3659   -1.8081   -0.4259 H   0  0  0  0  0  0  0  0  0  0  0  0
   -6.8294   -2.4441   -2.0079 H   0  0  0  0  0  0  0  0  0  0  0  0
   -4.8185    1.7230   -2.2038 H   0  0  0  0  0  0  0  0  0  0  0  0
   -3.1286    1.4402   -1.9235 H   0  0  0  0  0  0  0  0  0  0  0  0
   -5.0681   -3.9289   -1.3549 H   0  0  0  0  0  0  0  0  0  0  0  0
   -1.8251    0.3687   -0.6020 H   0  0  0  0  0  0  0  0  0  0  0  0
    2.5654   -0.1010    0.7204 H   0  0  0  0  0  0  0  0  0  0  0  0
    6.1129   -2.1533    1.8898 H   0  0  0  0  0  0  0  0  0  0  0  0
   -5.9233    0.5291    0.3934 H   0  0  0  0  0  0  0  0  0  0  0  0
    0.6557   -3.2663    0.3461 H   0  0  0  0  0  0  0  0  0  0  0  0
    4.9613   -4.3303    1.6828 H   0  0  0  0  0  0  0  0  0  0  0  0
    2.5937   -4.4278    0.9908 H   0  0  0  0  0  0  0  0  0  0  0  0
   -3.2997    4.4985    1.7990 H   0  0  0  0  0  0  0  0  0  0  0  0
   -5.0104    3.5581    3.2857 H   0  0  0  0  0  0  0  0  0  0  0  0
  1 30  1  0  0  0  0
  2 35  1  0  0  0  0
  3 18  2  0  0  0  0
  4 32  2  0  0  0  0
  5 14  1  0  0  0  0
  5 15  1  0  0  0  0
  5 17  1  0  0  0  0
  6 12  1  0  0  0  0
  6 13  1  0  0  0  0
  6 18  1  0  0  0  0
  7 16  1  0  0  0  0
  7 20  1  0  0  0  0
  7 21  1  0  0  0  0
  8 19  1  0  0  0  0
  8 22  1  0  0  0  0
  8 55  1  0  0  0  0
  9 11  1  0  0  0  0
  9 22  2  0  0  0  0
 10 29  1  0  0  0  0
 10 32  1  0  0  0  0
 10 60  1  0  0  0  0
 11 27  2  0  0  0  0
 12 14  1  0  0  0  0
 12 38  1  0  0  0  0
 12 39  1  0  0  0  0
 13 15  1  0  0  0  0
 13 40  1  0  0  0  0
 13 41  1  0  0  0  0
 14 42  1  0  0  0  0
 14 43  1  0  0  0  0
 15 44  1  0  0  0  0
 15 45  1  0  0  0  0
 16 19  1  0  0  0  0
 16 46  1  0  0  0  0
 16 47  1  0  0  0  0
 17 48  1  0  0  0  0
 17 49  1  0  0  0  0
 17 50  1  0  0  0  0
 18 23  1  0  0  0  0
 19 51  1  0  0  0  0
 19 52  1  0  0  0  0
 20 22  1  0  0  0  0
 20 25  2  0  0  0  0
 21 24  1  0  0  0  0
 21 53  1  0  0  0  0
 21 54  1  0  0  0  0
 23 26  2  0  0  0  0
 23 28  1  0  0  0  0
 24 30  2  0  0  0  0
 24 31  1  0  0  0  0
 25 27  1  0  0  0  0
 25 56  1  0  0  0  0
 26 29  1  0  0  0  0
 26 57  1  0  0  0  0
 27 32  1  0  0  0  0
 28 33  2  0  0  0  0
 28 58  1  0  0  0  0
 29 34  2  0  0  0  0
 30 36  1  0  0  0  0
 31 35  2  0  0  0  0
 31 59  1  0  0  0  0
 33 34  1  0  0  0  0
 33 61  1  0  0  0  0
 34 62  1  0  0  0  0
 35 37  1  0  0  0  0
 36 37  2  0  0  0  0
 36 63  1  0  0  0  0
 37 64  1  0  0  0  0
M  END
> <PUBCHEM_COMPOUND_CID>
121478218

> <PUBCHEM_CONFORMER_RMSD>
1.4

> <PUBCHEM_CONFORMER_DIVERSEORDER>
1
123
132
45
133
100
56
75
34
88
138
131
102
7
95
52
110
130
108
98
90
23
103
16
92
64
62
112
79
36
54
43
61
46
115
57
124
134
63
5
42
111
93
49
83
51
12
86
39
31
126
109
24
139
65
78
118
82
30
27
35
129
60
53
69
80
135
68
105
113
59
77
55
85
84
87
89
15
11
32
91
44
41
26
99
19
125
71
14
47
104
107
101
38
94
10
18
2
72
13
66
58
117
81
28
25
114
37
9
70
122
33
22
116
67
106
17
76
128
136
120
127
8
20
48
96
74
119
137
121
97
21
4
29
40
73
3
50
6

> <PUBCHEM_MMFF94_PARTIAL_CHARGES>
47
1 -0.18
10 -0.55
11 -0.31
12 0.3
13 0.3
14 0.27
15 0.27
16 0.37
17 0.27
18 0.54
19 0.37
2 -0.18
20 0.1
21 0.51
22 0.41
23 0.09
24 -0.14
25 -0.15
26 -0.15
27 0.4
28 -0.15
29 0.12
3 -0.57
30 0.18
31 -0.15
32 0.54
33 -0.15
34 -0.15
35 0.18
36 -0.15
37 -0.15
4 -0.57
5 -0.81
55 0.4
56 0.15
57 0.15
58 0.15
59 0.15
6 -0.66
60 0.37
61 0.15
62 0.15
63 0.15
64 0.15
7 -0.84
8 -0.87
9 -0.31

> <PUBCHEM_EFFECTIVE_ROTOR_COUNT>
9

> <PUBCHEM_PHARMACOPHORE_FEATURES>
13
1 10 donor
1 11 acceptor
1 3 acceptor
1 4 acceptor
1 5 cation
1 7 cation
1 8 donor
3 8 9 22 cation
6 23 26 28 29 33 34 rings
6 24 30 31 35 36 37 rings
6 5 6 12 13 14 15 rings
6 7 8 16 19 20 22 rings
6 9 11 20 22 25 27 rings

> <PUBCHEM_HEAVY_ATOM_COUNT>
37

> <PUBCHEM_ATOM_DEF_STEREO_COUNT>
0

> <PUBCHEM_ATOM_UDEF_STEREO_COUNT>
0

> <PUBCHEM_BOND_DEF_STEREO_COUNT>
0

> <PUBCHEM_BOND_UDEF_STEREO_COUNT>
0

> <PUBCHEM_ISOTOPIC_ATOM_COUNT>
0

> <PUBCHEM_COMPONENT_COUNT>
1

> <PUBCHEM_CACTVS_TAUTO_COUNT>
19

> <PUBCHEM_CONFORMER_ID>
073D9C4A00000001

> <PUBCHEM_MMFF94_ENERGY>
120.6165

> <PUBCHEM_FEATURE_SELFOVERLAP>
66.007

> <PUBCHEM_SHAPE_FINGERPRINT>
100830 2 18409174290118459228
11007060 377 17749104504907278587
11578080 2 16558202514481034183
12107183 9 17765981818898589235
13782708 43 13542473072303902986
14400156 266 17703782645028351757
15021287 119 17825379692083446994
15082195 135 18334566980381646862
15160629 178 17896907476742881693
15183329 4 18335138752034832244
15289351 153 18058143147805389002
15338160 23 18131631171889703219
15357212 105 18270137720085416419
15406563 185 18129673027348676932
15513586 35 18261684718121172169
15799311 1 18412259523893208184
1768 23 18341623568040140200
18393751 57 18269280054931745043
20691028 202 18056473950967125145
21458453 9 17532398420487355801
23522609 53 18340499910316852105
23569914 152 12605179923877468841
249057 25 18338500968055333642
34797466 226 16987990738831843690
3552219 110 18336546106081468903
3610482 184 18272093781641917117
3918712 181 18265599039440076420
394071 54 17385723604323890878
397830 11 16732993028314102131
4173938 77 18189623731190572274
4197921 191 18411128130823167299
4258327 124 18411135797941274853
44280116 191 15404453991724385776
4435113 14 17060620023034590288
50677037 204 18335415789978159068
5104073 3 18337936909884695954
6036956 94 18263922151517581709
6057620 51 18263632026128479423
6058803 2 18266157496631346339
6636735 143 12540958755231974446
6700243 42 17417535850884895766

> <PUBCHEM_SHAPE_MULTIPOLES>
718.58
20.84
5.39
2.67
11.51
0.51
0.1
12
0.21
0.1
-0.31
-0.33
1.5
-8.99

> <PUBCHEM_SHAPE_SELFOVERLAP>
1537.402

> <PUBCHEM_SHAPE_VOLUME>
397.9

> <PUBCHEM_COORDINATE_TYPE>
2
5
10

$$$$
