122582678
  -OEChem-07162207173D

 68 72  0     1  0  0  0  0  0999 V2000
   -4.0049    3.2852   -2.0813 Cl  0  0  0  0  0  0  0  0  0  0  0  0
   -7.6701    1.6069    2.6772 Cl  0  0  0  0  0  0  0  0  0  0  0  0
    6.1692    0.5970    2.5867 O   0  0  0  0  0  0  0  0  0  0  0  0
    4.0049    1.8787    0.3472 O   0  0  0  0  0  0  0  0  0  0  0  0
   -0.4292    0.4925   -0.3298 O   0  0  0  0  0  0  0  0  0  0  0  0
    6.8421   -0.1313    0.4696 N   0  0  0  0  0  0  0  0  0  0  0  0
    8.5865    0.2430   -1.7711 N   0  0  0  0  0  0  0  0  0  0  0  0
   -5.2716   -0.8522   -1.2229 N   0  0  1  0  0  0  0  0  0  0  0  0
   -5.2849   -3.4975   -0.2721 N   0  0  0  0  0  0  0  0  0  0  0  0
   -2.9983   -3.3328    0.2718 N   0  0  0  0  0  0  0  0  0  0  0  0
    0.5439   -1.4277    0.6161 N   0  0  0  0  0  0  0  0  0  0  0  0
   -1.8314   -2.6414    0.3588 N   0  0  0  0  0  0  0  0  0  0  0  0
    8.2440    0.2284    0.6705 C   0  0  0  0  0  0  0  0  0  0  0  0
    6.5572   -0.7950   -0.8073 C   0  0  0  0  0  0  0  0  0  0  0  0
    8.7969    0.9985   -0.5275 C   0  0  0  0  0  0  0  0  0  0  0  0
    7.1544   -0.0140   -1.9799 C   0  0  0  0  0  0  0  0  0  0  0  0
    5.9165    0.1005    1.4899 C   0  0  0  0  0  0  0  0  0  0  0  0
    9.1506    0.9640   -2.9115 C   0  0  0  0  0  0  0  0  0  0  0  0
   -6.3568   -1.7629   -1.5856 C   0  0  0  0  0  0  0  0  0  0  0  0
   -6.5397   -2.8197   -0.5052 C   0  0  0  0  0  0  0  0  0  0  0  0
   -4.1118   -1.4201   -0.6952 C   0  0  0  0  0  0  0  0  0  0  0  0
   -5.2754    0.4880   -1.7862 C   0  0  0  0  0  0  0  0  0  0  0  0
    4.5173   -0.2811    1.2567 C   0  0  0  0  0  0  0  0  0  0  0  0
   -4.1158   -2.7462   -0.2266 C   0  0  0  0  0  0  0  0  0  0  0  0
   -2.9055   -0.7256   -0.5842 C   0  0  0  0  0  0  0  0  0  0  0  0
   -5.5568    1.5081   -0.7180 C   0  0  0  0  0  0  0  0  0  0  0  0
    3.6133    0.6203    0.6943 C   0  0  0  0  0  0  0  0  0  0  0  0
    4.0968   -1.5647    1.6054 C   0  0  0  0  0  0  0  0  0  0  0  0
   -1.8014   -1.3663   -0.0590 C   0  0  0  0  0  0  0  0  0  0  0  0
    1.8683   -1.0453    0.8297 C   0  0  0  0  0  0  0  0  0  0  0  0
    2.2889    0.2381    0.4807 C   0  0  0  0  0  0  0  0  0  0  0  0
    2.7724   -1.9467    1.3921 C   0  0  0  0  0  0  0  0  0  0  0  0
   -5.0211    2.7947   -0.7753 C   0  0  0  0  0  0  0  0  0  0  0  0
   -6.3762    1.1406    0.3494 C   0  0  0  0  0  0  0  0  0  0  0  0
   -0.4965   -0.6658    0.0676 C   0  0  0  0  0  0  0  0  0  0  0  0
   -6.6600    2.0598    1.3595 C   0  0  0  0  0  0  0  0  0  0  0  0
   -5.3048    3.7140    0.2348 C   0  0  0  0  0  0  0  0  0  0  0  0
   -6.1245    3.3466    1.3020 C   0  0  0  0  0  0  0  0  0  0  0  0
    3.0132    2.7315   -0.2211 C   0  0  0  0  0  0  0  0  0  0  0  0
    8.7996   -0.7061    0.8169 H   0  0  0  0  0  0  0  0  0  0  0  0
    8.3630    0.8248    1.5809 H   0  0  0  0  0  0  0  0  0  0  0  0
    5.4845   -0.9240   -0.9666 H   0  0  0  0  0  0  0  0  0  0  0  0
    7.0005   -1.7969   -0.7511 H   0  0  0  0  0  0  0  0  0  0  0  0
    8.3130    1.9826   -0.5868 H   0  0  0  0  0  0  0  0  0  0  0  0
    9.8685    1.1663   -0.3667 H   0  0  0  0  0  0  0  0  0  0  0  0
    7.0082   -0.6003   -2.8950 H   0  0  0  0  0  0  0  0  0  0  0  0
    6.6079    0.9308   -2.1029 H   0  0  0  0  0  0  0  0  0  0  0  0
    9.0312    0.3813   -3.8316 H   0  0  0  0  0  0  0  0  0  0  0  0
   10.2268    1.1174   -2.7749 H   0  0  0  0  0  0  0  0  0  0  0  0
    8.6786    1.9422   -3.0588 H   0  0  0  0  0  0  0  0  0  0  0  0
   -6.1225   -2.2365   -2.5476 H   0  0  0  0  0  0  0  0  0  0  0  0
   -7.2979   -1.2151   -1.7130 H   0  0  0  0  0  0  0  0  0  0  0  0
   -6.8827   -2.3595    0.4291 H   0  0  0  0  0  0  0  0  0  0  0  0
   -7.2993   -3.5462   -0.8118 H   0  0  0  0  0  0  0  0  0  0  0  0
   -6.0802    0.5784   -2.5289 H   0  0  0  0  0  0  0  0  0  0  0  0
   -4.3555    0.6681   -2.3498 H   0  0  0  0  0  0  0  0  0  0  0  0
   -5.2712   -4.4415    0.0927 H   0  0  0  0  0  0  0  0  0  0  0  0
   -2.8197    0.3084   -0.8989 H   0  0  0  0  0  0  0  0  0  0  0  0
    4.7925   -2.2756    2.0437 H   0  0  0  0  0  0  0  0  0  0  0  0
    1.5947    0.9333    0.0475 H   0  0  0  0  0  0  0  0  0  0  0  0
    2.4584   -2.9501    1.6686 H   0  0  0  0  0  0  0  0  0  0  0  0
   -6.8281    0.1558    0.4129 H   0  0  0  0  0  0  0  0  0  0  0  0
    0.3154   -2.3804    0.8926 H   0  0  0  0  0  0  0  0  0  0  0  0
   -4.8953    4.7205    0.2047 H   0  0  0  0  0  0  0  0  0  0  0  0
   -6.3371    4.0733    2.0819 H   0  0  0  0  0  0  0  0  0  0  0  0
    3.5009    3.6886   -0.4350 H   0  0  0  0  0  0  0  0  0  0  0  0
    2.2052    2.9445    0.4873 H   0  0  0  0  0  0  0  0  0  0  0  0
    2.6471    2.3471   -1.1795 H   0  0  0  0  0  0  0  0  0  0  0  0
  1 33  1  0  0  0  0
  2 36  1  0  0  0  0
  3 17  2  0  0  0  0
  4 27  1  0  0  0  0
  4 39  1  0  0  0  0
  5 35  2  0  0  0  0
  6 13  1  0  0  0  0
  6 14  1  0  0  0  0
  6 17  1  0  0  0  0
  7 15  1  0  0  0  0
  7 16  1  0  0  0  0
  7 18  1  0  0  0  0
  8 19  1  0  0  0  0
  8 21  1  0  0  0  0
  8 22  1  0  0  0  0
  9 20  1  0  0  0  0
  9 24  1  0  0  0  0
  9 57  1  0  0  0  0
 10 12  1  0  0  0  0
 10 24  2  0  0  0  0
 11 30  1  0  0  0  0
 11 35  1  0  0  0  0
 11 63  1  0  0  0  0
 12 29  2  0  0  0  0
 13 15  1  0  0  0  0
 13 40  1  0  0  0  0
 13 41  1  0  0  0  0
 14 16  1  0  0  0  0
 14 42  1  0  0  0  0
 14 43  1  0  0  0  0
 15 44  1  0  0  0  0
 15 45  1  0  0  0  0
 16 46  1  0  0  0  0
 16 47  1  0  0  0  0
 17 23  1  0  0  0  0
 18 48  1  0  0  0  0
 18 49  1  0  0  0  0
 18 50  1  0  0  0  0
 19 20  1  0  0  0  0
 19 51  1  0  0  0  0
 19 52  1  0  0  0  0
 20 53  1  0  0  0  0
 20 54  1  0  0  0  0
 21 24  1  0  0  0  0
 21 25  2  0  0  0  0
 22 26  1  0  0  0  0
 22 55  1  0  0  0  0
 22 56  1  0  0  0  0
 23 27  2  0  0  0  0
 23 28  1  0  0  0  0
 25 29  1  0  0  0  0
 25 58  1  0  0  0  0
 26 33  2  0  0  0  0
 26 34  1  0  0  0  0
 27 31  1  0  0  0  0
 28 32  2  0  0  0  0
 28 59  1  0  0  0  0
 29 35  1  0  0  0  0
 30 31  2  0  0  0  0
 30 32  1  0  0  0  0
 31 60  1  0  0  0  0
 32 61  1  0  0  0  0
 33 37  1  0  0  0  0
 34 36  2  0  0  0  0
 34 62  1  0  0  0  0
 36 38  1  0  0  0  0
 37 38  2  0  0  0  0
 37 64  1  0  0  0  0
 38 65  1  0  0  0  0
 39 66  1  0  0  0  0
 39 67  1  0  0  0  0
 39 68  1  0  0  0  0
M  END
> <PUBCHEM_COMPOUND_CID>
122582678

> <PUBCHEM_CONFORMER_RMSD>
1.2

> <PUBCHEM_CONFORMER_DIVERSEORDER>
1
131
126
23
35
118
63
146
94
50
40
136
43
100
114
12
76
72
89
26
33
86
67
54
119
109
25
127
74
18
87
130
82
138
102
37
149
113
132
27
145
85
117
75
68
34
155
28
153
123
122
151
81
137
52
140
90
105
124
9
134
110
141
84
47
56
98
70
107
51
115
21
61
154
78
71
97
92
2
148
129
22
142
77
62
143
45
30
99
96
144
152
32
36
73
53
79
135
116
17
29
6
10
64
31
103
150
125
48
106
83
44
69
95
13
108
93
59
128
14
55
65
147
24
60
112
80
121
41
120
46
57
19
66
91
156
15
58
38
101
139
5
88
16
42
111
4
133
8
11
104
49
7
39
20
3

> <PUBCHEM_MMFF94_PARTIAL_CHARGES>
48
1 -0.18
10 -0.31
11 -0.55
12 -0.31
13 0.3
14 0.3
15 0.27
16 0.27
17 0.54
18 0.27
19 0.37
2 -0.18
20 0.37
21 0.1
22 0.51
23 0.09
24 0.41
25 -0.15
26 -0.14
27 0.08
28 -0.15
29 0.4
3 -0.57
30 0.12
31 -0.15
32 -0.15
33 0.18
34 -0.15
35 0.54
36 0.18
37 -0.15
38 -0.15
39 0.28
4 -0.36
5 -0.57
57 0.4
58 0.15
59 0.15
6 -0.66
60 0.15
61 0.15
62 0.15
63 0.37
64 0.15
65 0.15
7 -0.81
8 -0.84
9 -0.87

> <PUBCHEM_EFFECTIVE_ROTOR_COUNT>
10

> <PUBCHEM_PHARMACOPHORE_FEATURES>
14
1 11 donor
1 12 acceptor
1 3 acceptor
1 4 acceptor
1 5 acceptor
1 7 cation
1 8 cation
1 9 donor
3 9 10 24 cation
6 10 12 21 24 25 29 rings
6 23 27 28 30 31 32 rings
6 26 33 34 36 37 38 rings
6 6 7 13 14 15 16 rings
6 8 9 19 20 21 24 rings

> <PUBCHEM_HEAVY_ATOM_COUNT>
39

> <PUBCHEM_ATOM_DEF_STEREO_COUNT>
0

> <PUBCHEM_ATOM_UDEF_STEREO_COUNT>
0

> <PUBCHEM_BOND_DEF_STEREO_COUNT>
0

> <PUBCHEM_BOND_UDEF_STEREO_COUNT>
0

> <PUBCHEM_ISOTOPIC_ATOM_COUNT>
0

> <PUBCHEM_COMPONENT_COUNT>
1

> <PUBCHEM_CACTVS_TAUTO_COUNT>
29

> <PUBCHEM_CONFORMER_ID>
074E769600000001

> <PUBCHEM_MMFF94_ENERGY>
136.6932

> <PUBCHEM_FEATURE_SELFOVERLAP>
71.083

> <PUBCHEM_SHAPE_FINGERPRINT>
10554248 39 15195285357036772504
10906281 52 18040155098256161642
10951579 204 18342185423426072420
12013929 27 15337971239930740677
12082328 90 18342735221561613126
12133447 93 18413674608849082748
13383665 225 18261404338556119382
13782708 43 14692572113693408626
14118638 360 18337096917898778947
14294032 229 18187641358728051604
14856354 85 18334855056797399751
15021287 119 17240198811997055541
15064981 113 17917417723406449453
15064981 194 18114747152622020359
15183329 4 18260536827538103504
15289351 153 18197481022009637552
15328684 2 17896577553727133040
15554971 5 18113887274478548946
15604295 49 18129367371737751912
1577012 14 18410005512076095338
16728433 281 18271251508575569656
19304152 47 17386005006334071669
19309040 13 17130421291090698813
21792965 184 18263659501704191811
21927370 108 18115029736327962931
23522609 53 17894638024338484780
23576562 1 17825110565586164158
25269216 80 18339090379507974678
3418910 222 18113621231012994551
3711267 37 17822010926369726900
3986486 107 18409740569551750190
4073 2 17313097562137106594
4169191 19 17313103055647326918
4173938 188 15140966192821926097
445580 37 18408038520070451510
44880568 143 18201157754305704712
5937810 71 18410578400990183380

> <PUBCHEM_SHAPE_MULTIPOLES>
753.87
29.56
4
2.15
41.11
0.27
-0.14
11
-5.31
-10.75
-0.27
1.5
0.92
-3.31

> <PUBCHEM_SHAPE_SELFOVERLAP>
1611.041

> <PUBCHEM_SHAPE_VOLUME>
418.8

> <PUBCHEM_COORDINATE_TYPE>
2
5
10

$$$$
