C26H33Cl2N7O2
APtclcactv07172213563D 0   0.00000     0.00000
 
 70 74  0  0  0  0  0  0  0  0999 V2000
    6.1081    1.9085    0.2748 C   0  0  0  0  0  0  0  0  0  0  0  0
    7.3718    2.4008    0.0024 C   0  0  0  0  0  0  0  0  0  0  0  0
    8.0827    3.5923    1.0458 Cl  0  0  0  0  0  0  0  0  0  0  0  0
    8.0695    1.9432   -1.1015 C   0  0  0  0  0  0  0  0  0  0  0  0
    7.5035    0.9952   -1.9322 C   0  0  0  0  0  0  0  0  0  0  0  0
    6.2390    0.5034   -1.6602 C   0  0  0  0  0  0  0  0  0  0  0  0
    5.5276   -0.6873   -2.7043 Cl  0  0  0  0  0  0  0  0  0  0  0  0
    5.5421    0.9598   -0.5559 C   0  0  0  0  0  0  0  0  0  0  0  0
    4.1652    0.4239   -0.2594 C   0  0  0  0  0  0  0  0  0  0  0  0
    4.2802   -0.8840    0.3996 N   0  0  0  0  0  0  0  0  0  0  0  0
    3.0323   -1.3622    0.7779 C   0  0  0  0  0  0  0  0  0  0  0  0
    1.9129   -1.0530    0.0117 C   0  0  0  0  0  0  0  0  0  0  0  0
    0.6769   -1.5601    0.4276 C   0  0  0  0  0  0  0  0  0  0  0  0
   -0.5454   -1.2612   -0.3493 C   0  0  0  0  0  0  0  0  0  0  0  0
   -0.4769   -0.5746   -1.3499 O   0  0  0  0  0  0  0  0  0  0  0  0
   -1.7355   -1.7501    0.0523 N   0  0  0  0  0  0  0  0  0  0  0  0
   -1.7902   -2.2980    0.8508 H   0  0  0  0  0  0  0  0  0  0  0  0
   -2.9464   -1.4540   -0.7173 C   0  0  0  0  0  0  0  0  0  0  0  0
   -3.9853   -2.5513   -0.4754 C   0  0  0  0  0  0  0  0  0  0  0  0
   -5.2368   -2.2567   -1.3083 C   0  0  0  0  0  0  0  0  0  0  0  0
   -5.7066   -0.9008   -0.9926 N   0  0  0  0  0  0  0  0  0  0  0  0
   -6.9804   -0.6878   -0.6074 C   0  0  0  0  0  0  0  0  0  0  0  0
   -7.7223   -1.6285   -0.4189 O   0  0  0  0  0  0  0  0  0  0  0  0
   -7.4828    0.7194   -0.4108 C   0  0  0  0  0  0  0  0  0  0  0  0
   -8.9857    0.7710   -0.6990 C   0  0  0  0  0  0  0  0  0  0  0  0
   -9.5016    2.1882   -0.4389 C   0  0  0  0  0  0  0  0  0  0  0  0
   -9.2400    2.5569    0.9582 N   0  0  0  0  0  0  0  0  0  0  0  0
   -9.8445    3.8561    1.2818 C   0  0  0  0  0  0  0  0  0  0  0  0
   -7.8000    2.5603    1.2458 C   0  0  0  0  0  0  0  0  0  0  0  0
   -7.2333    1.1543    1.0360 C   0  0  0  0  0  0  0  0  0  0  0  0
   -4.7611    0.2183   -1.1045 C   0  0  0  0  0  0  0  0  0  0  0  0
   -3.5150   -0.1041   -0.2738 C   0  0  0  0  0  0  0  0  0  0  0  0
    0.6030   -2.3096    1.5211 N   0  0  0  0  0  0  0  0  0  0  0  0
    1.6356   -2.5935    2.2285 N   0  0  0  0  0  0  0  0  0  0  0  0
    2.8473   -2.1561    1.9146 C   0  0  0  0  0  0  0  0  0  0  0  0
    3.9337   -2.4821    2.7219 N   0  0  0  0  0  0  0  0  0  0  0  0
    3.8071   -2.8806    3.5972 H   0  0  0  0  0  0  0  0  0  0  0  0
    5.2817   -2.2012    2.1999 C   0  0  0  0  0  0  0  0  0  0  0  0
    5.2319   -0.8290    1.5141 C   0  0  0  0  0  0  0  0  0  0  0  0
    5.5655    2.2622    1.1391 H   0  0  0  0  0  0  0  0  0  0  0  0
    9.0563    2.3273   -1.3140 H   0  0  0  0  0  0  0  0  0  0  0  0
    8.0478    0.6383   -2.7940 H   0  0  0  0  0  0  0  0  0  0  0  0
    3.6393    1.1167    0.3975 H   0  0  0  0  0  0  0  0  0  0  0  0
    3.6098    0.3139   -1.1908 H   0  0  0  0  0  0  0  0  0  0  0  0
    1.9952   -0.4415   -0.8747 H   0  0  0  0  0  0  0  0  0  0  0  0
   -2.7013   -1.4135   -1.7786 H   0  0  0  0  0  0  0  0  0  0  0  0
   -3.5711   -3.5157   -0.7697 H   0  0  0  0  0  0  0  0  0  0  0  0
   -4.2494   -2.5757    0.5818 H   0  0  0  0  0  0  0  0  0  0  0  0
   -4.9935   -2.3214   -2.3689 H   0  0  0  0  0  0  0  0  0  0  0  0
   -6.0159   -2.9792   -1.0653 H   0  0  0  0  0  0  0  0  0  0  0  0
   -6.9583    1.3916   -1.0898 H   0  0  0  0  0  0  0  0  0  0  0  0
   -9.1660    0.5035   -1.7402 H   0  0  0  0  0  0  0  0  0  0  0  0
   -9.5056    0.0691   -0.0470 H   0  0  0  0  0  0  0  0  0  0  0  0
   -8.9911    2.8877   -1.1009 H   0  0  0  0  0  0  0  0  0  0  0  0
  -10.5742    2.2249   -0.6295 H   0  0  0  0  0  0  0  0  0  0  0  0
  -10.9226    3.8030    1.1303 H   0  0  0  0  0  0  0  0  0  0  0  0
   -9.6356    4.1050    2.3222 H   0  0  0  0  0  0  0  0  0  0  0  0
   -9.4238    4.6243    0.6329 H   0  0  0  0  0  0  0  0  0  0  0  0
   -7.2975    3.2581    0.5759 H   0  0  0  0  0  0  0  0  0  0  0  0
   -7.6367    2.8673    2.2788 H   0  0  0  0  0  0  0  0  0  0  0  0
   -7.7256    0.4584    1.7153 H   0  0  0  0  0  0  0  0  0  0  0  0
   -6.1615    1.1606    1.2344 H   0  0  0  0  0  0  0  0  0  0  0  0
   -4.4790    0.3554   -2.1484 H   0  0  0  0  0  0  0  0  0  0  0  0
   -5.2264    1.1288   -0.7270 H   0  0  0  0  0  0  0  0  0  0  0  0
   -3.7835   -0.1515    0.7815 H   0  0  0  0  0  0  0  0  0  0  0  0
   -2.7661    0.6734   -0.4247 H   0  0  0  0  0  0  0  0  0  0  0  0
    5.9995   -2.1797    3.0199 H   0  0  0  0  0  0  0  0  0  0  0  0
    5.5661   -2.9662    1.4774 H   0  0  0  0  0  0  0  0  0  0  0  0
    6.2220   -0.5745    1.1358 H   0  0  0  0  0  0  0  0  0  0  0  0
    4.9096   -0.0745    2.2316 H   0  0  0  0  0  0  0  0  0  0  0  0
  1  2  2  0  0  0  0
  2  3  1  0  0  0  0
  2  4  1  0  0  0  0
  4  5  2  0  0  0  0
  5  6  1  0  0  0  0
  6  7  1  0  0  0  0
  6  8  2  0  0  0  0
  1  8  1  0  0  0  0
  8  9  1  0  0  0  0
  9 10  1  0  0  0  0
 10 11  1  0  0  0  0
 11 12  2  0  0  0  0
 12 13  1  0  0  0  0
 13 14  1  0  0  0  0
 14 15  2  0  0  0  0
 14 16  1  0  0  0  0
 16 17  1  0  0  0  0
 16 18  1  0  0  0  0
 18 19  1  0  0  0  0
 19 20  1  0  0  0  0
 20 21  1  0  0  0  0
 21 22  1  0  0  0  0
 22 23  2  0  0  0  0
 22 24  1  0  0  0  0
 24 25  1  0  0  0  0
 25 26  1  0  0  0  0
 26 27  1  0  0  0  0
 27 28  1  0  0  0  0
 27 29  1  0  0  0  0
 29 30  1  0  0  0  0
 24 30  1  0  0  0  0
 21 31  1  0  0  0  0
 31 32  1  0  0  0  0
 18 32  1  0  0  0  0
 13 33  2  0  0  0  0
 33 34  1  0  0  0  0
 34 35  2  0  0  0  0
 11 35  1  0  0  0  0
 35 36  1  0  0  0  0
 36 37  1  0  0  0  0
 36 38  1  0  0  0  0
 38 39  1  0  0  0  0
 10 39  1  0  0  0  0
  1 40  1  0  0  0  0
  4 41  1  0  0  0  0
  5 42  1  0  0  0  0
  9 43  1  0  0  0  0
  9 44  1  0  0  0  0
 12 45  1  0  0  0  0
 18 46  1  0  0  0  0
 19 47  1  0  0  0  0
 19 48  1  0  0  0  0
 20 49  1  0  0  0  0
 20 50  1  0  0  0  0
 24 51  1  0  0  0  0
 25 52  1  0  0  0  0
 25 53  1  0  0  0  0
 26 54  1  0  0  0  0
 26 55  1  0  0  0  0
 28 56  1  0  0  0  0
 28 57  1  0  0  0  0
 28 58  1  0  0  0  0
 29 59  1  0  0  0  0
 29 60  1  0  0  0  0
 30 61  1  0  0  0  0
 30 62  1  0  0  0  0
 31 63  1  0  0  0  0
 31 64  1  0  0  0  0
 32 65  1  0  0  0  0
 32 66  1  0  0  0  0
 38 67  1  0  0  0  0
 38 68  1  0  0  0  0
 39 69  1  0  0  0  0
 39 70  1  0  0  0  0
M  END
$$$$
