121478144
  -OEChem-07172214143D

 70 74  0     1  0  0  0  0  0999 V2000
   -0.3479    1.6873   -2.5609 Cl  0  0  0  0  0  0  0  0  0  0  0  0
   -3.2552    4.6233    2.1103 Cl  0  0  0  0  0  0  0  0  0  0  0  0
    0.9391   -4.2597   -0.4620 O   0  0  0  0  0  0  0  0  0  0  0  0
    3.8346   -0.5080    0.2852 N   0  0  0  0  0  0  0  0  0  0  0  0
    7.8494    0.8371    0.1363 N   0  0  0  0  0  0  0  0  0  0  0  0
   -4.3007    0.5615   -0.9581 N   0  0  1  0  0  0  0  0  0  0  0  0
   -1.2368   -2.8480    0.6223 N   0  0  0  0  0  0  0  0  0  0  0  0
   -6.3125   -0.7228    0.5267 N   0  0  0  0  0  0  0  0  0  0  0  0
   -4.7759   -2.3697    1.2183 N   0  0  0  0  0  0  0  0  0  0  0  0
   -3.5282   -2.9073    1.2572 N   0  0  0  0  0  0  0  0  0  0  0  0
    6.3932    0.8075    0.0122 C   0  0  0  0  0  0  0  0  0  0  0  0
    5.7562    0.5736    1.3838 C   0  0  0  0  0  0  0  0  0  0  0  0
    5.9539   -0.2952   -0.9551 C   0  0  0  0  0  0  0  0  0  0  0  0
    4.2323    0.4915    1.2829 C   0  0  0  0  0  0  0  0  0  0  0  0
    4.4303   -0.3702   -1.0513 C   0  0  0  0  0  0  0  0  0  0  0  0
    2.5668   -1.0962    0.3679 C   0  0  0  0  0  0  0  0  0  0  0  0
    8.4707    1.0337   -1.1733 C   0  0  0  0  0  0  0  0  0  0  0  0
    8.2630    1.8919    1.0613 C   0  0  0  0  0  0  0  0  0  0  0  0
    2.3716   -2.3991   -0.0905 C   0  0  0  0  0  0  0  0  0  0  0  0
    1.4989   -0.3798    0.9084 C   0  0  0  0  0  0  0  0  0  0  0  0
    1.1088   -2.9857   -0.0080 C   0  0  0  0  0  0  0  0  0  0  0  0
    0.2361   -0.9662    0.9909 C   0  0  0  0  0  0  0  0  0  0  0  0
    0.0411   -2.2692    0.5327 C   0  0  0  0  0  0  0  0  0  0  0  0
   -5.7102    0.8576   -1.2117 C   0  0  0  0  0  0  0  0  0  0  0  0
   -4.0127   -0.5891   -0.2242 C   0  0  0  0  0  0  0  0  0  0  0  0
   -6.5318    0.6229    0.0482 C   0  0  0  0  0  0  0  0  0  0  0  0
   -3.2978    1.2052   -1.7909 C   0  0  0  0  0  0  0  0  0  0  0  0
   -5.0206   -1.2368    0.5125 C   0  0  0  0  0  0  0  0  0  0  0  0
   -2.5397   -2.2992    0.5831 C   0  0  0  0  0  0  0  0  0  0  0  0
   -2.7365   -1.1521   -0.1592 C   0  0  0  0  0  0  0  0  0  0  0  0
   -2.5137    2.2085   -0.9915 C   0  0  0  0  0  0  0  0  0  0  0  0
   -1.1759    2.4849   -1.2734 C   0  0  0  0  0  0  0  0  0  0  0  0
   -3.1569    2.8697    0.0548 C   0  0  0  0  0  0  0  0  0  0  0  0
    0.5751   -4.4154   -1.8319 C   0  0  0  0  0  0  0  0  0  0  0  0
   -2.4624    3.8074    0.8189 C   0  0  0  0  0  0  0  0  0  0  0  0
   -0.4812    3.4225   -0.5091 C   0  0  0  0  0  0  0  0  0  0  0  0
   -1.1245    4.0837    0.5370 C   0  0  0  0  0  0  0  0  0  0  0  0
    6.0304    1.7702   -0.3775 H   0  0  0  0  0  0  0  0  0  0  0  0
    5.9747    1.3830    2.0878 H   0  0  0  0  0  0  0  0  0  0  0  0
    6.1385   -0.3572    1.8241 H   0  0  0  0  0  0  0  0  0  0  0  0
    6.3435   -1.2671   -0.6237 H   0  0  0  0  0  0  0  0  0  0  0  0
    6.3218   -0.1232   -1.9719 H   0  0  0  0  0  0  0  0  0  0  0  0
    3.8447    0.2282    2.2751 H   0  0  0  0  0  0  0  0  0  0  0  0
    3.8262    1.4737    1.0100 H   0  0  0  0  0  0  0  0  0  0  0  0
    4.0374    0.5367   -1.5285 H   0  0  0  0  0  0  0  0  0  0  0  0
    4.1720   -1.2120   -1.7040 H   0  0  0  0  0  0  0  0  0  0  0  0
    8.3913    0.1416   -1.8021 H   0  0  0  0  0  0  0  0  0  0  0  0
    8.0575    1.8957   -1.7097 H   0  0  0  0  0  0  0  0  0  0  0  0
    9.5498    1.1986   -1.0649 H   0  0  0  0  0  0  0  0  0  0  0  0
    8.0379    1.6375    2.1014 H   0  0  0  0  0  0  0  0  0  0  0  0
    7.8173    2.8635    0.8187 H   0  0  0  0  0  0  0  0  0  0  0  0
    9.3530    2.0151    1.0394 H   0  0  0  0  0  0  0  0  0  0  0  0
    3.1994   -2.9734   -0.5002 H   0  0  0  0  0  0  0  0  0  0  0  0
    1.6117    0.6404    1.2643 H   0  0  0  0  0  0  0  0  0  0  0  0
   -0.5695   -0.3898    1.4373 H   0  0  0  0  0  0  0  0  0  0  0  0
   -6.0710    0.2182   -2.0277 H   0  0  0  0  0  0  0  0  0  0  0  0
   -5.8374    1.8981   -1.5329 H   0  0  0  0  0  0  0  0  0  0  0  0
   -6.2487    1.3370    0.8307 H   0  0  0  0  0  0  0  0  0  0  0  0
   -7.5963    0.7703   -0.1617 H   0  0  0  0  0  0  0  0  0  0  0  0
   -3.7882    1.7624   -2.6012 H   0  0  0  0  0  0  0  0  0  0  0  0
   -2.6853    0.4566   -2.3013 H   0  0  0  0  0  0  0  0  0  0  0  0
   -1.2201   -3.7937    0.9938 H   0  0  0  0  0  0  0  0  0  0  0  0
   -7.0165   -1.1912    1.0830 H   0  0  0  0  0  0  0  0  0  0  0  0
   -1.9101   -0.7153   -0.7076 H   0  0  0  0  0  0  0  0  0  0  0  0
   -4.2030    2.6959    0.2862 H   0  0  0  0  0  0  0  0  0  0  0  0
    0.4582   -5.4832   -2.0360 H   0  0  0  0  0  0  0  0  0  0  0  0
    1.3600   -4.0186   -2.4836 H   0  0  0  0  0  0  0  0  0  0  0  0
   -0.3750   -3.9136   -2.0406 H   0  0  0  0  0  0  0  0  0  0  0  0
    0.5619    3.6483   -0.7155 H   0  0  0  0  0  0  0  0  0  0  0  0
   -0.5707    4.8115    1.1245 H   0  0  0  0  0  0  0  0  0  0  0  0
  1 32  1  0  0  0  0
  2 35  1  0  0  0  0
  3 21  1  0  0  0  0
  3 34  1  0  0  0  0
  4 14  1  0  0  0  0
  4 15  1  0  0  0  0
  4 16  1  0  0  0  0
  5 11  1  0  0  0  0
  5 17  1  0  0  0  0
  5 18  1  0  0  0  0
  6 24  1  0  0  0  0
  6 25  1  0  0  0  0
  6 27  1  0  0  0  0
  7 23  1  0  0  0  0
  7 29  1  0  0  0  0
  7 62  1  0  0  0  0
  8 26  1  0  0  0  0
  8 28  1  0  0  0  0
  8 63  1  0  0  0  0
  9 10  1  0  0  0  0
  9 28  2  0  0  0  0
 10 29  2  0  0  0  0
 11 12  1  0  0  0  0
 11 13  1  0  0  0  0
 11 38  1  0  0  0  0
 12 14  1  0  0  0  0
 12 39  1  0  0  0  0
 12 40  1  0  0  0  0
 13 15  1  0  0  0  0
 13 41  1  0  0  0  0
 13 42  1  0  0  0  0
 14 43  1  0  0  0  0
 14 44  1  0  0  0  0
 15 45  1  0  0  0  0
 15 46  1  0  0  0  0
 16 19  2  0  0  0  0
 16 20  1  0  0  0  0
 17 47  1  0  0  0  0
 17 48  1  0  0  0  0
 17 49  1  0  0  0  0
 18 50  1  0  0  0  0
 18 51  1  0  0  0  0
 18 52  1  0  0  0  0
 19 21  1  0  0  0  0
 19 53  1  0  0  0  0
 20 22  2  0  0  0  0
 20 54  1  0  0  0  0
 21 23  2  0  0  0  0
 22 23  1  0  0  0  0
 22 55  1  0  0  0  0
 24 26  1  0  0  0  0
 24 56  1  0  0  0  0
 24 57  1  0  0  0  0
 25 28  1  0  0  0  0
 25 30  2  0  0  0  0
 26 58  1  0  0  0  0
 26 59  1  0  0  0  0
 27 31  1  0  0  0  0
 27 60  1  0  0  0  0
 27 61  1  0  0  0  0
 29 30  1  0  0  0  0
 30 64  1  0  0  0  0
 31 32  2  0  0  0  0
 31 33  1  0  0  0  0
 32 36  1  0  0  0  0
 33 35  2  0  0  0  0
 33 65  1  0  0  0  0
 34 66  1  0  0  0  0
 34 67  1  0  0  0  0
 34 68  1  0  0  0  0
 35 37  1  0  0  0  0
 36 37  2  0  0  0  0
 36 69  1  0  0  0  0
 37 70  1  0  0  0  0
M  END
> <PUBCHEM_COMPOUND_CID>
121478144

> <PUBCHEM_CONFORMER_RMSD>
1.2

> <PUBCHEM_CONFORMER_DIVERSEORDER>
1
158
83
116
212
53
222
180
109
105
122
100
26
46
187
52
54
181
230
144
159
206
189
125
184
61
224
86
215
84
106
69
170
55
57
45
157
19
163
169
38
113
91
115
234
239
108
199
98
207
149
183
81
200
123
40
174
201
130
238
177
139
143
235
192
42
231
136
214
162
146
67
47
242
225
233
240
195
227
2
41
93
10
147
145
129
43
191
153
173
237
167
203
160
33
88
120
148
131
196
126
194
39
103
89
185
134
217
99
188
142
137
216
135
178
31
107
168
138
210
141
165
209
117
77
101
218
17
119
25
205
62
236
124
133
59
35
171
156
64
114
161
202
56
132
221
80
34
179
7
97
4
211
241
78
63
152
44
58
92
102
172
190
9
27
150
28
118
82
23
112
104
226
155
219
3
94
48
70
95
232
29
197
204
127
72
229
73
111
186
87
16
8
154
37
32
193
22
50
90
75
20
49
151
51
110
30
15
65
228
213
71
18
85
208
182
223
60
36
21
140
66
220
14
128
74
76
79
11
13
96
121
24
6
164
166
12
68
175
198
5
176

> <PUBCHEM_MMFF94_PARTIAL_CHARGES>
44
1 -0.18
10 -0.31
11 0.27
14 0.37
15 0.37
16 0.1
17 0.27
18 0.27
19 -0.15
2 -0.18
20 -0.15
21 0.08
22 -0.15
23 0.1
24 0.37
25 0.1
26 0.37
27 0.51
28 0.41
29 0.41
3 -0.36
30 -0.15
31 -0.14
32 0.18
33 -0.15
34 0.28
35 0.18
36 -0.15
37 -0.15
4 -0.84
5 -0.81
53 0.15
54 0.15
55 0.15
6 -0.84
62 0.4
63 0.4
64 0.15
65 0.15
69 0.15
7 -0.6
70 0.15
8 -0.87
9 -0.31

> <PUBCHEM_EFFECTIVE_ROTOR_COUNT>
9

> <PUBCHEM_PHARMACOPHORE_FEATURES>
13
1 3 acceptor
1 4 cation
1 5 cation
1 6 cation
1 7 donor
1 8 donor
3 7 10 29 cation
3 8 9 28 cation
6 16 19 20 21 22 23 rings
6 31 32 33 35 36 37 rings
6 4 11 12 13 14 15 rings
6 6 8 24 25 26 28 rings
6 9 10 25 28 29 30 rings

> <PUBCHEM_HEAVY_ATOM_COUNT>
37

> <PUBCHEM_ATOM_DEF_STEREO_COUNT>
0

> <PUBCHEM_ATOM_UDEF_STEREO_COUNT>
0

> <PUBCHEM_BOND_DEF_STEREO_COUNT>
0

> <PUBCHEM_BOND_UDEF_STEREO_COUNT>
0

> <PUBCHEM_ISOTOPIC_ATOM_COUNT>
0

> <PUBCHEM_COMPONENT_COUNT>
1

> <PUBCHEM_CACTVS_TAUTO_COUNT>
8

> <PUBCHEM_CONFORMER_ID>
073D9C0000000001

> <PUBCHEM_MMFF94_ENERGY>
152.5

> <PUBCHEM_FEATURE_SELFOVERLAP>
66.009

> <PUBCHEM_SHAPE_FINGERPRINT>
10290309 65 18041552517643035619
10369192 42 18412261752754271326
10454371 7 18335708260783024876
10670039 82 18335989662528500428
13402501 40 18409161125868961123
13726171 33 18115301155937323385
13947920 24 18409164398365165112
140371 6 18335712624237149553
14068700 686 18270965635277183750
14394314 77 18339084779298466537
15183329 4 15913330200010434070
15297060 5 18341615901555113497
15419008 47 18201721799381068792
15538507 32 18339640161514269828
15604295 49 18194680609260199568
15961568 22 18333450936844617135
15968369 153 18128531747153462400
18336668 15 17749108932923037565
19309040 13 17843117004856653709
19611394 137 17753060676514305019
24771293 8 18408886223067978111
25019877 29 18202289142748657838
354706 132 18266466417271764572
3918712 181 18409157810503108808
4197921 191 18114178619463711328
44802255 64 18269281317394264918
469060 322 16950566545381858797
50150288 127 16986881121188271177
57527585 21 18056172714998346773
58902169 19 13901916661283062008
5912855 24 17914055300494943113
6004065 56 18339912827797263207
6703917 75 18411429410516150172

> <PUBCHEM_SHAPE_MULTIPOLES>
724.45
17.99
5.66
1.7
32.8
0.55
-0.48
7.48
0.89
-4.74
0.88
-0.28
0.73
0.97

> <PUBCHEM_SHAPE_SELFOVERLAP>
1537.293

> <PUBCHEM_SHAPE_VOLUME>
407.4

> <PUBCHEM_COORDINATE_TYPE>
2
5
10

$$$$
