122582679
  -OEChem-07172214183D

 71 75  0     1  0  0  0  0  0999 V2000
   -0.2693    1.9313   -2.5329 Cl  0  0  0  0  0  0  0  0  0  0  0  0
   -4.1368    4.2429    1.7790 Cl  0  0  0  0  0  0  0  0  0  0  0  0
    2.4373   -3.3021    0.0568 O   0  0  0  0  0  0  0  0  0  0  0  0
    6.7854    2.1241   -0.5508 N   0  0  0  0  0  0  0  0  0  0  0  0
   -3.8649   -0.1276   -1.0193 N   0  0  1  0  0  0  0  0  0  0  0  0
   -0.0993   -2.4723    0.9385 N   0  0  0  0  0  0  0  0  0  0  0  0
   -5.5439   -1.8190    0.4714 N   0  0  0  0  0  0  0  0  0  0  0  0
   -2.3246   -3.1146    1.4792 N   0  0  0  0  0  0  0  0  0  0  0  0
   -3.6662   -2.9404    1.3480 N   0  0  0  0  0  0  0  0  0  0  0  0
    4.2714    1.1917    0.6256 C   0  0  0  0  0  0  0  0  0  0  0  0
    4.3270    1.9200   -0.7278 C   0  0  0  0  0  0  0  0  0  0  0  0
    5.6170    0.5017    0.9050 C   0  0  0  0  0  0  0  0  0  0  0  0
    5.5394    2.8484   -0.8024 C   0  0  0  0  0  0  0  0  0  0  0  0
    6.7781    1.4864    0.7660 C   0  0  0  0  0  0  0  0  0  0  0  0
    3.1024    0.2297    0.7131 C   0  0  0  0  0  0  0  0  0  0  0  0
    1.8508    0.6601    1.1537 C   0  0  0  0  0  0  0  0  0  0  0  0
    3.2923   -1.1025    0.3460 C   0  0  0  0  0  0  0  0  0  0  0  0
    2.2307   -2.0043    0.4191 C   0  0  0  0  0  0  0  0  0  0  0  0
    0.7892   -0.2419    1.2270 C   0  0  0  0  0  0  0  0  0  0  0  0
    0.9791   -1.5740    0.8596 C   0  0  0  0  0  0  0  0  0  0  0  0
    1.6234    2.0816    1.5516 C   0  0  0  0  0  0  0  0  0  0  0  0
   -5.2840   -0.2424   -1.3533 C   0  0  0  0  0  0  0  0  0  0  0  0
   -3.3233   -1.1099   -0.1901 C   0  0  0  0  0  0  0  0  0  0  0  0
   -6.0873   -0.6153   -0.1150 C   0  0  0  0  0  0  0  0  0  0  0  0
   -3.0233    0.7131   -1.8550 C   0  0  0  0  0  0  0  0  0  0  0  0
   -1.4969   -2.3023    0.8037 C   0  0  0  0  0  0  0  0  0  0  0  0
   -4.1630   -1.9617    0.5499 C   0  0  0  0  0  0  0  0  0  0  0  0
   -1.9493   -1.2992   -0.0297 C   0  0  0  0  0  0  0  0  0  0  0  0
    2.8630   -3.5398   -1.2832 C   0  0  0  0  0  0  0  0  0  0  0  0
   -2.5875    1.9385   -1.1005 C   0  0  0  0  0  0  0  0  0  0  0  0
    4.2275   -4.2120   -1.2631 C   0  0  0  0  0  0  0  0  0  0  0  0
    1.8227   -4.3904   -1.9959 C   0  0  0  0  0  0  0  0  0  0  0  0
   -1.3581    2.5501   -1.3451 C   0  0  0  0  0  0  0  0  0  0  0  0
   -3.4470    2.4617   -0.1345 C   0  0  0  0  0  0  0  0  0  0  0  0
   -3.0768    3.5968    0.5869 C   0  0  0  0  0  0  0  0  0  0  0  0
   -0.9879    3.6851   -0.6237 C   0  0  0  0  0  0  0  0  0  0  0  0
   -1.8474    4.2086    0.3422 C   0  0  0  0  0  0  0  0  0  0  0  0
    4.1667    1.9480    1.4140 H   0  0  0  0  0  0  0  0  0  0  0  0
    4.3780    1.1874   -1.5449 H   0  0  0  0  0  0  0  0  0  0  0  0
    3.4155    2.5036   -0.8972 H   0  0  0  0  0  0  0  0  0  0  0  0
    5.6237    0.0650    1.9113 H   0  0  0  0  0  0  0  0  0  0  0  0
    5.8232   -0.3090    0.1981 H   0  0  0  0  0  0  0  0  0  0  0  0
    5.5890    3.3032   -1.7978 H   0  0  0  0  0  0  0  0  0  0  0  0
    5.4345    3.6720   -0.0858 H   0  0  0  0  0  0  0  0  0  0  0  0
    6.7266    2.2509    1.5506 H   0  0  0  0  0  0  0  0  0  0  0  0
    7.7264    0.9562    0.9083 H   0  0  0  0  0  0  0  0  0  0  0  0
    6.8997    1.4051   -1.2657 H   0  0  0  0  0  0  0  0  0  0  0  0
    4.2430   -1.4695   -0.0174 H   0  0  0  0  0  0  0  0  0  0  0  0
   -0.1734    0.1016    1.5977 H   0  0  0  0  0  0  0  0  0  0  0  0
    2.2102    2.3331    2.4408 H   0  0  0  0  0  0  0  0  0  0  0  0
    1.8696    2.7697    0.7389 H   0  0  0  0  0  0  0  0  0  0  0  0
    0.5730    2.2618    1.8072 H   0  0  0  0  0  0  0  0  0  0  0  0
   -5.4095   -1.0040   -2.1337 H   0  0  0  0  0  0  0  0  0  0  0  0
   -5.6664    0.7028   -1.7563 H   0  0  0  0  0  0  0  0  0  0  0  0
    0.1485   -3.3538    1.3792 H   0  0  0  0  0  0  0  0  0  0  0  0
   -6.0545    0.1949    0.6233 H   0  0  0  0  0  0  0  0  0  0  0  0
   -7.1374   -0.7762   -0.3799 H   0  0  0  0  0  0  0  0  0  0  0  0
   -3.5952    1.0658   -2.7245 H   0  0  0  0  0  0  0  0  0  0  0  0
   -2.2024    0.1301   -2.2819 H   0  0  0  0  0  0  0  0  0  0  0  0
   -1.2390   -0.6879   -0.5739 H   0  0  0  0  0  0  0  0  0  0  0  0
   -6.1285   -2.4268    1.0310 H   0  0  0  0  0  0  0  0  0  0  0  0
    2.9518   -2.6005   -1.8461 H   0  0  0  0  0  0  0  0  0  0  0  0
    4.5857   -4.4136   -2.2773 H   0  0  0  0  0  0  0  0  0  0  0  0
    4.9668   -3.5870   -0.7527 H   0  0  0  0  0  0  0  0  0  0  0  0
    4.1862   -5.1588   -0.7132 H   0  0  0  0  0  0  0  0  0  0  0  0
    0.8530   -3.8809   -2.0040 H   0  0  0  0  0  0  0  0  0  0  0  0
    2.1161   -4.5980   -3.0294 H   0  0  0  0  0  0  0  0  0  0  0  0
    1.6730   -5.3425   -1.4751 H   0  0  0  0  0  0  0  0  0  0  0  0
   -4.4203    2.0245    0.0646 H   0  0  0  0  0  0  0  0  0  0  0  0
   -0.0329    4.1729   -0.8020 H   0  0  0  0  0  0  0  0  0  0  0  0
   -1.5455    5.0931    0.8971 H   0  0  0  0  0  0  0  0  0  0  0  0
  1 33  1  0  0  0  0
  2 35  1  0  0  0  0
  3 18  1  0  0  0  0
  3 29  1  0  0  0  0
  4 13  1  0  0  0  0
  4 14  1  0  0  0  0
  4 47  1  0  0  0  0
  5 22  1  0  0  0  0
  5 23  1  0  0  0  0
  5 25  1  0  0  0  0
  6 20  1  0  0  0  0
  6 26  1  0  0  0  0
  6 55  1  0  0  0  0
  7 24  1  0  0  0  0
  7 27  1  0  0  0  0
  7 61  1  0  0  0  0
  8  9  1  0  0  0  0
  8 26  2  0  0  0  0
  9 27  2  0  0  0  0
 10 11  1  0  0  0  0
 10 12  1  0  0  0  0
 10 15  1  0  0  0  0
 10 38  1  0  0  0  0
 11 13  1  0  0  0  0
 11 39  1  0  0  0  0
 11 40  1  0  0  0  0
 12 14  1  0  0  0  0
 12 41  1  0  0  0  0
 12 42  1  0  0  0  0
 13 43  1  0  0  0  0
 13 44  1  0  0  0  0
 14 45  1  0  0  0  0
 14 46  1  0  0  0  0
 15 16  1  0  0  0  0
 15 17  2  0  0  0  0
 16 19  2  0  0  0  0
 16 21  1  0  0  0  0
 17 18  1  0  0  0  0
 17 48  1  0  0  0  0
 18 20  2  0  0  0  0
 19 20  1  0  0  0  0
 19 49  1  0  0  0  0
 21 50  1  0  0  0  0
 21 51  1  0  0  0  0
 21 52  1  0  0  0  0
 22 24  1  0  0  0  0
 22 53  1  0  0  0  0
 22 54  1  0  0  0  0
 23 27  1  0  0  0  0
 23 28  2  0  0  0  0
 24 56  1  0  0  0  0
 24 57  1  0  0  0  0
 25 30  1  0  0  0  0
 25 58  1  0  0  0  0
 25 59  1  0  0  0  0
 26 28  1  0  0  0  0
 28 60  1  0  0  0  0
 29 31  1  0  0  0  0
 29 32  1  0  0  0  0
 29 62  1  0  0  0  0
 30 33  2  0  0  0  0
 30 34  1  0  0  0  0
 31 63  1  0  0  0  0
 31 64  1  0  0  0  0
 31 65  1  0  0  0  0
 32 66  1  0  0  0  0
 32 67  1  0  0  0  0
 32 68  1  0  0  0  0
 33 36  1  0  0  0  0
 34 35  2  0  0  0  0
 34 69  1  0  0  0  0
 35 37  1  0  0  0  0
 36 37  2  0  0  0  0
 36 70  1  0  0  0  0
 37 71  1  0  0  0  0
M  END
> <PUBCHEM_COMPOUND_CID>
122582679

> <PUBCHEM_CONFORMER_RMSD>
1

> <PUBCHEM_CONFORMER_DIVERSEORDER>
2
276
62
77
134
80
218
85
87
44
166
178
192
180
232
269
95
156
40
109
291
78
287
150
170
136
189
235
152
42
301
114
314
61
295
190
113
97
107
169
200
258
290
266
33
303
313
229
205
45
227
262
225
216
67
158
145
130
106
299
252
131
143
277
281
167
309
304
191
221
51
179
243
273
98
123
197
120
103
177
257
297
214
151
255
181
300
298
102
75
310
250
59
246
288
139
36
209
125
311
96
91
284
159
128
68
275
34
292
20
215
124
264
155
140
211
228
253
110
237
148
66
195
234
186
263
289
173
41
239
202
294
171
260
183
296
86
115
122
52
92
5
137
162
261
213
164
233
188
133
174
121
226
268
241
57
90
118
222
217
285
306
251
199
64
230
201
312
89
279
60
176
220
105
208
185
129
286
238
193
210
270
219
127
196
1
47
26
163
132
22
23
88
56
112
71
307
172
203
256
248
302
9
15
245
240
278
70
175
50
119
32
53
249
184
83
204
3
223
135
161
272
55
54
244
231
25
271
35
305
81
116
154
46
28
168
283
43
74
108
247
19
99
38
144
138
17
153
187
206
72
165
37
157
30
308
79
8
224
29
182
212
73
147
280
84
242
39
146
69
117
126
293
93
76
48
207
259
6
82
21
7
49
282
12
265
142
65
254
100
11
16
236
101
141
31
160
94
18
27
274
14
267
13
198
111
58
149
63
4
24
10
194
104

> <PUBCHEM_MMFF94_PARTIAL_CHARGES>
42
1 -0.18
10 0.14
13 0.27
14 0.27
15 -0.14
16 -0.14
17 -0.15
18 0.08
19 -0.15
2 -0.18
20 0.1
21 0.14
22 0.37
23 0.1
24 0.37
25 0.51
26 0.41
27 0.41
28 -0.15
29 0.28
3 -0.36
30 -0.14
33 0.18
34 -0.15
35 0.18
36 -0.15
37 -0.15
4 -0.9
47 0.36
48 0.15
49 0.15
5 -0.84
55 0.4
6 -0.6
60 0.15
61 0.4
69 0.15
7 -0.87
70 0.15
71 0.15
8 -0.31
9 -0.31

> <PUBCHEM_EFFECTIVE_ROTOR_COUNT>
9

> <PUBCHEM_PHARMACOPHORE_FEATURES>
14
1 3 acceptor
1 4 cation
1 4 donor
1 5 cation
1 6 donor
1 7 donor
3 29 31 32 hydrophobe
3 6 8 26 cation
3 7 9 27 cation
6 15 16 17 18 19 20 rings
6 30 33 34 35 36 37 rings
6 4 10 11 12 13 14 rings
6 5 7 22 23 24 27 rings
6 8 9 23 26 27 28 rings

> <PUBCHEM_HEAVY_ATOM_COUNT>
37

> <PUBCHEM_ATOM_DEF_STEREO_COUNT>
0

> <PUBCHEM_ATOM_UDEF_STEREO_COUNT>
0

> <PUBCHEM_BOND_DEF_STEREO_COUNT>
0

> <PUBCHEM_BOND_UDEF_STEREO_COUNT>
0

> <PUBCHEM_ISOTOPIC_ATOM_COUNT>
0

> <PUBCHEM_COMPONENT_COUNT>
1

> <PUBCHEM_CACTVS_TAUTO_COUNT>
241

> <PUBCHEM_CONFORMER_ID>
074E769700000002

> <PUBCHEM_MMFF94_ENERGY>
128.1281

> <PUBCHEM_FEATURE_SELFOVERLAP>
71.083

> <PUBCHEM_SHAPE_FINGERPRINT>
10290309 65 17968360291834508739
11513181 2 18272369728959022663
12156800 1 18051732985471276453
12788726 201 18337657668781004673
13402501 40 18335131046477893667
140371 6 18335146439973024217
14068700 675 18267300031362621149
14363568 33 17540544938492695817
14394314 77 18409171000696178569
14747282 125 17689733264792374676
15961568 22 18260265295437193678
19309040 13 18059010566983581940
19311894 1 17260462575053082239
19611394 137 17535196871128491523
21133410 38 18270687463763540857
3493558 16 15578665446410162462
4173938 77 17687176500436655413
44802255 64 17977962494942348286
46194498 28 18342454786036040582
469060 322 16588021295211247565
50150288 127 17631742547806434257
57527585 103 16951715599636697137
57527585 21 18199445737207158677
5776283 40 18050866424590677574
5912855 24 18129666292170024401
6287921 2 18189903011212544580

> <PUBCHEM_SHAPE_MULTIPOLES>
729.43
13.51
6.43
1.8
8.18
0.87
0.59
-3.89
0.04
0.17
0.54
-0.42
-0.07
1.26

> <PUBCHEM_SHAPE_SELFOVERLAP>
1547.817

> <PUBCHEM_SHAPE_VOLUME>
409

> <PUBCHEM_COORDINATE_TYPE>
2
5
10

$$$$
