122582653
  -OEChem-07172214083D

 74 78  0     1  0  0  0  0  0999 V2000
   -4.7889    3.1433   -2.4095 Cl  0  0  0  0  0  0  0  0  0  0  0  0
   -7.7883    2.2604    2.9865 Cl  0  0  0  0  0  0  0  0  0  0  0  0
   -1.1212    0.3609   -0.8430 O   0  0  0  0  0  0  0  0  0  0  0  0
    9.3647    0.9838   -0.4065 N   0  0  2  0  0  0  0  0  0  0  0  0
    5.3272   -0.1976    0.0962 N   0  0  0  0  0  0  0  0  0  0  0  0
   -6.0962   -0.7800   -0.8735 N   0  0  1  0  0  0  0  0  0  0  0  0
   -0.1258   -1.4962    0.1897 N   0  0  0  0  0  0  0  0  0  0  0  0
   -6.0857   -3.2899    0.3922 N   0  0  0  0  0  0  0  0  0  0  0  0
   -3.7391   -3.2030    0.5854 N   0  0  0  0  0  0  0  0  0  0  0  0
   -2.5431   -2.5788    0.4212 N   0  0  0  0  0  0  0  0  0  0  0  0
    8.1347    0.4794    0.2013 C   0  0  0  0  0  0  0  0  0  0  0  0
    7.0507    1.5609    0.2086 C   0  0  0  0  0  0  0  0  0  0  0  0
    7.6354   -0.7455   -0.5680 C   0  0  0  0  0  0  0  0  0  0  0  0
    5.7431    1.0275    0.7934 C   0  0  0  0  0  0  0  0  0  0  0  0
    6.3231   -1.2720    0.0149 C   0  0  0  0  0  0  0  0  0  0  0  0
   10.4984    0.1307   -0.0508 C   0  0  0  0  0  0  0  0  0  0  0  0
    9.6133    2.3635    0.0104 C   0  0  0  0  0  0  0  0  0  0  0  0
    3.9654   -0.5219    0.1205 C   0  0  0  0  0  0  0  0  0  0  0  0
   11.6167    0.3209   -1.0707 C   0  0  0  0  0  0  0  0  0  0  0  0
   10.9822    0.4547    1.3598 C   0  0  0  0  0  0  0  0  0  0  0  0
    3.5450   -1.7279    0.6814 C   0  0  0  0  0  0  0  0  0  0  0  0
    3.0290    0.3609   -0.4177 C   0  0  0  0  0  0  0  0  0  0  0  0
    2.1883   -2.0508    0.7046 C   0  0  0  0  0  0  0  0  0  0  0  0
    1.6723    0.0380   -0.3947 C   0  0  0  0  0  0  0  0  0  0  0  0
    1.2520   -1.1679    0.1665 C   0  0  0  0  0  0  0  0  0  0  0  0
   -7.2617   -1.6587   -0.9641 C   0  0  0  0  0  0  0  0  0  0  0  0
   -4.8976   -1.3521   -0.4470 C   0  0  0  0  0  0  0  0  0  0  0  0
   -7.3303   -2.5686    0.2544 C   0  0  0  0  0  0  0  0  0  0  0  0
   -6.1241    0.4827   -1.5935 C   0  0  0  0  0  0  0  0  0  0  0  0
   -4.8909   -2.6114    0.1794 C   0  0  0  0  0  0  0  0  0  0  0  0
   -3.6589   -0.7246   -0.5934 C   0  0  0  0  0  0  0  0  0  0  0  0
   -1.2118   -0.7513   -0.2950 C   0  0  0  0  0  0  0  0  0  0  0  0
   -2.5188   -1.3658   -0.1523 C   0  0  0  0  0  0  0  0  0  0  0  0
   -6.2010    1.6362   -0.6320 C   0  0  0  0  0  0  0  0  0  0  0  0
   -5.6237    2.8720   -0.9234 C   0  0  0  0  0  0  0  0  0  0  0  0
   -6.8704    1.4468    0.5770 C   0  0  0  0  0  0  0  0  0  0  0  0
   -6.9628    2.4934    1.4944 C   0  0  0  0  0  0  0  0  0  0  0  0
   -5.7159    3.9187   -0.0058 C   0  0  0  0  0  0  0  0  0  0  0  0
   -6.3854    3.7293    1.2031 C   0  0  0  0  0  0  0  0  0  0  0  0
    8.2926    0.1878    1.2473 H   0  0  0  0  0  0  0  0  0  0  0  0
    7.3166    2.4271    0.8238 H   0  0  0  0  0  0  0  0  0  0  0  0
    6.8597    1.9178   -0.8127 H   0  0  0  0  0  0  0  0  0  0  0  0
    7.4740   -0.4793   -1.6218 H   0  0  0  0  0  0  0  0  0  0  0  0
    8.3548   -1.5698   -0.5590 H   0  0  0  0  0  0  0  0  0  0  0  0
    5.8686    0.8088    1.8616 H   0  0  0  0  0  0  0  0  0  0  0  0
    4.9884    1.8188    0.7162 H   0  0  0  0  0  0  0  0  0  0  0  0
    5.9699   -2.0824   -0.6351 H   0  0  0  0  0  0  0  0  0  0  0  0
    6.5039   -1.6915    1.0125 H   0  0  0  0  0  0  0  0  0  0  0  0
   10.2374   -0.9312   -0.0866 H   0  0  0  0  0  0  0  0  0  0  0  0
   10.6048    2.7167   -0.2942 H   0  0  0  0  0  0  0  0  0  0  0  0
    9.5152    2.5390    1.0886 H   0  0  0  0  0  0  0  0  0  0  0  0
    8.9388    3.0516   -0.5138 H   0  0  0  0  0  0  0  0  0  0  0  0
   12.4281   -0.3896   -0.8752 H   0  0  0  0  0  0  0  0  0  0  0  0
   11.2563    0.1302   -2.0880 H   0  0  0  0  0  0  0  0  0  0  0  0
   12.0581    1.3219   -1.0489 H   0  0  0  0  0  0  0  0  0  0  0  0
   11.4983    1.4182    1.4363 H   0  0  0  0  0  0  0  0  0  0  0  0
   11.7232   -0.2976    1.6598 H   0  0  0  0  0  0  0  0  0  0  0  0
   10.1947    0.4166    2.1179 H   0  0  0  0  0  0  0  0  0  0  0  0
    4.2446   -2.4318    1.1231 H   0  0  0  0  0  0  0  0  0  0  0  0
    3.3392    1.2982   -0.8727 H   0  0  0  0  0  0  0  0  0  0  0  0
    1.8733   -2.9921    1.1477 H   0  0  0  0  0  0  0  0  0  0  0  0
    1.0092    0.7698   -0.8333 H   0  0  0  0  0  0  0  0  0  0  0  0
   -7.1919   -2.2552   -1.8829 H   0  0  0  0  0  0  0  0  0  0  0  0
   -8.1864   -1.0730   -1.0256 H   0  0  0  0  0  0  0  0  0  0  0  0
   -7.5122   -1.9819    1.1628 H   0  0  0  0  0  0  0  0  0  0  0  0
   -8.1576   -3.2781    0.1503 H   0  0  0  0  0  0  0  0  0  0  0  0
   -7.0243    0.5346   -2.2214 H   0  0  0  0  0  0  0  0  0  0  0  0
   -5.2898    0.5390   -2.2986 H   0  0  0  0  0  0  0  0  0  0  0  0
   -0.3419   -2.3961    0.6140 H   0  0  0  0  0  0  0  0  0  0  0  0
   -6.0600   -4.1838    0.8663 H   0  0  0  0  0  0  0  0  0  0  0  0
   -3.5760    0.2583   -1.0436 H   0  0  0  0  0  0  0  0  0  0  0  0
   -7.3509    0.5058    0.8253 H   0  0  0  0  0  0  0  0  0  0  0  0
   -5.2714    4.8878   -0.2180 H   0  0  0  0  0  0  0  0  0  0  0  0
   -6.4493    4.5537    1.9086 H   0  0  0  0  0  0  0  0  0  0  0  0
  1 35  1  0  0  0  0
  2 37  1  0  0  0  0
  3 32  2  0  0  0  0
  4 11  1  0  0  0  0
  4 16  1  0  0  0  0
  4 17  1  0  0  0  0
  5 14  1  0  0  0  0
  5 15  1  0  0  0  0
  5 18  1  0  0  0  0
  6 26  1  0  0  0  0
  6 27  1  0  0  0  0
  6 29  1  0  0  0  0
  7 25  1  0  0  0  0
  7 32  1  0  0  0  0
  7 69  1  0  0  0  0
  8 28  1  0  0  0  0
  8 30  1  0  0  0  0
  8 70  1  0  0  0  0
  9 10  1  0  0  0  0
  9 30  2  0  0  0  0
 10 33  2  0  0  0  0
 11 12  1  0  0  0  0
 11 13  1  0  0  0  0
 11 40  1  0  0  0  0
 12 14  1  0  0  0  0
 12 41  1  0  0  0  0
 12 42  1  0  0  0  0
 13 15  1  0  0  0  0
 13 43  1  0  0  0  0
 13 44  1  0  0  0  0
 14 45  1  0  0  0  0
 14 46  1  0  0  0  0
 15 47  1  0  0  0  0
 15 48  1  0  0  0  0
 16 19  1  0  0  0  0
 16 20  1  0  0  0  0
 16 49  1  0  0  0  0
 17 50  1  0  0  0  0
 17 51  1  0  0  0  0
 17 52  1  0  0  0  0
 18 21  2  0  0  0  0
 18 22  1  0  0  0  0
 19 53  1  0  0  0  0
 19 54  1  0  0  0  0
 19 55  1  0  0  0  0
 20 56  1  0  0  0  0
 20 57  1  0  0  0  0
 20 58  1  0  0  0  0
 21 23  1  0  0  0  0
 21 59  1  0  0  0  0
 22 24  2  0  0  0  0
 22 60  1  0  0  0  0
 23 25  2  0  0  0  0
 23 61  1  0  0  0  0
 24 25  1  0  0  0  0
 24 62  1  0  0  0  0
 26 28  1  0  0  0  0
 26 63  1  0  0  0  0
 26 64  1  0  0  0  0
 27 30  1  0  0  0  0
 27 31  2  0  0  0  0
 28 65  1  0  0  0  0
 28 66  1  0  0  0  0
 29 34  1  0  0  0  0
 29 67  1  0  0  0  0
 29 68  1  0  0  0  0
 31 33  1  0  0  0  0
 31 71  1  0  0  0  0
 32 33  1  0  0  0  0
 34 35  2  0  0  0  0
 34 36  1  0  0  0  0
 35 38  1  0  0  0  0
 36 37  2  0  0  0  0
 36 72  1  0  0  0  0
 37 39  1  0  0  0  0
 38 39  2  0  0  0  0
 38 73  1  0  0  0  0
 39 74  1  0  0  0  0
M  END
> <PUBCHEM_COMPOUND_CID>
122582653

> <PUBCHEM_CONFORMER_RMSD>
1.2

> <PUBCHEM_CONFORMER_DIVERSEORDER>
1
114
31
139
56
144
39
7
131
97
38
133
68
96
134
66
62
79
37
115
50
67
101
58
126
140
116
10
148
88
111
46
48
49
51
150
149
127
141
57
76
43
98
118
27
59
109
53
61
130
107
9
18
29
99
11
2
35
73
47
13
69
125
121
91
112
34
113
54
92
44
32
108
102
94
82
120
42
103
72
93
28
6
147
135
40
70
105
137
4
83
138
20
85
75
30
136
143
23
60
26
45
15
21
71
78
65
142
119
86
12
124
123
146
81
25
24
41
128
16
117
19
145
22
74
151
84
3
87
89
90
110
55
129
63
106
33
80
122
95
77
100
8
104
132
14
52
5
64
17
36

> <PUBCHEM_MMFF94_PARTIAL_CHARGES>
45
1 -0.18
10 -0.31
11 0.27
14 0.37
15 0.37
16 0.27
17 0.27
18 0.1
2 -0.18
21 -0.15
22 -0.15
23 -0.15
24 -0.15
25 0.12
26 0.37
27 0.1
28 0.37
29 0.51
3 -0.57
30 0.41
31 -0.15
32 0.54
33 0.4
34 -0.14
35 0.18
36 -0.15
37 0.18
38 -0.15
39 -0.15
4 -0.81
5 -0.84
59 0.15
6 -0.84
60 0.15
61 0.15
62 0.15
69 0.37
7 -0.55
70 0.4
71 0.15
72 0.15
73 0.15
74 0.15
8 -0.87
9 -0.31

> <PUBCHEM_EFFECTIVE_ROTOR_COUNT>
10

> <PUBCHEM_PHARMACOPHORE_FEATURES>
14
1 10 acceptor
1 3 acceptor
1 4 cation
1 5 cation
1 6 cation
1 7 donor
1 8 donor
3 16 19 20 hydrophobe
3 8 9 30 cation
6 18 21 22 23 24 25 rings
6 34 35 36 37 38 39 rings
6 5 11 12 13 14 15 rings
6 6 8 26 27 28 30 rings
6 9 10 27 30 31 33 rings

> <PUBCHEM_HEAVY_ATOM_COUNT>
39

> <PUBCHEM_ATOM_DEF_STEREO_COUNT>
0

> <PUBCHEM_ATOM_UDEF_STEREO_COUNT>
0

> <PUBCHEM_BOND_DEF_STEREO_COUNT>
0

> <PUBCHEM_BOND_UDEF_STEREO_COUNT>
0

> <PUBCHEM_ISOTOPIC_ATOM_COUNT>
0

> <PUBCHEM_COMPONENT_COUNT>
1

> <PUBCHEM_CACTVS_TAUTO_COUNT>
14

> <PUBCHEM_CONFORMER_ID>
074E767D00000001

> <PUBCHEM_MMFF94_ENERGY>
139.9636

> <PUBCHEM_FEATURE_SELFOVERLAP>
71.082

> <PUBCHEM_SHAPE_FINGERPRINT>
100830 39 18408038503507676501
10580692 12 18410011035298743855
10930396 42 16588596293566903501
11061554 47 18411411844290677184
11181472 205 17987806207475552306
11315181 36 18333447664886879655
11578821 258 18201155551109567856
12013929 29 18055070956738742425
12013929 94 18264489657924959962
12082328 90 18412823581879464407
12089408 11 17967529091656806742
12133447 93 18409176489600138342
12664476 115 18131631201769792979
13885169 127 18408884053012598574
14294032 229 17749382625271464644
15021287 119 16805328782220598197
15289351 153 18411972594771930472
15328684 2 17823115891983386048
15510794 2 18342178869780699870
15530121 191 18272082851652555288
15554971 5 18186516636063890150
15604295 49 18270956964356125752
1577012 14 18408882901998286658
1754908 1 13045946815735551116
18603816 31 13190633763333395009
19304152 47 17313667028404714941
21026386 100 14907886216176466392
21772524 286 18339925892365851208
21792961 116 17918277558774495810
24771293 8 18187365420148243182
335507 130 18339922722732072022
3711267 37 17967819344993140652
395649 100 18412826880313984193
4169191 19 18336538344268261701
437795 83 18343295964750702407
4403749 210 17896595086522749853
44280117 145 18131066091517069495
44802255 64 17275098428049556095
4625314 4 18413108386415626190
504579 68 12103840138619979973
5937810 71 18342460322237744233
636775 72 18411135835778413169
6691757 9 16225768540381352443
9962374 69 11095878281838295514

> <PUBCHEM_SHAPE_MULTIPOLES>
765.6
39.75
4.11
1.48
99.47
1.34
0.33
19.16
3.16
-12.46
0.57
-3.4
1.35
-1.17

> <PUBCHEM_SHAPE_SELFOVERLAP>
1625.069

> <PUBCHEM_SHAPE_VOLUME>
429.5

> <PUBCHEM_COORDINATE_TYPE>
2
5
10

$$$$
