122582664
  -OEChem-07172214033D

 73 78  0     1  0  0  0  0  0999 V2000
   -4.9794   -3.2100    2.4067 Cl  0  0  0  0  0  0  0  0  0  0  0  0
   -8.0776   -2.3774   -2.9411 Cl  0  0  0  0  0  0  0  0  0  0  0  0
   11.8599   -1.2254    0.0996 O   0  0  0  0  0  0  0  0  0  0  0  0
   -1.4141   -0.3146    0.8092 O   0  0  0  0  0  0  0  0  0  0  0  0
    9.0779   -0.6368    0.2238 N   0  0  0  0  0  0  0  0  0  0  0  0
    5.0022    0.4327   -0.2150 N   0  0  0  0  0  0  0  0  0  0  0  0
   -6.4185    0.6846    0.9161 N   0  0  1  0  0  0  0  0  0  0  0  0
   -0.4862    1.5768   -0.2243 N   0  0  0  0  0  0  0  0  0  0  0  0
   -6.4967    3.2020   -0.3322 N   0  0  0  0  0  0  0  0  0  0  0  0
   -4.1514    3.1828   -0.5584 N   0  0  0  0  0  0  0  0  0  0  0  0
   -2.9360    2.5919   -0.4149 N   0  0  0  0  0  0  0  0  0  0  0  0
    7.8260   -0.1637   -0.3634 C   0  0  0  0  0  0  0  0  0  0  0  0
    6.7730   -1.2754   -0.3632 C   0  0  0  0  0  0  0  0  0  0  0  0
    7.3030    1.0415    0.4212 C   0  0  0  0  0  0  0  0  0  0  0  0
    5.4428   -0.7756   -0.9262 C   0  0  0  0  0  0  0  0  0  0  0  0
    5.9683    1.5343   -0.1399 C   0  0  0  0  0  0  0  0  0  0  0  0
    9.5836   -1.8106   -0.5014 C   0  0  0  0  0  0  0  0  0  0  0  0
   10.0895    0.4291    0.2244 C   0  0  0  0  0  0  0  0  0  0  0  0
   10.8955   -2.2784    0.1219 C   0  0  0  0  0  0  0  0  0  0  0  0
   11.3901   -0.0914    0.8296 C   0  0  0  0  0  0  0  0  0  0  0  0
    3.6316    0.7184   -0.2182 C   0  0  0  0  0  0  0  0  0  0  0  0
    3.1694    1.9156   -0.7649 C   0  0  0  0  0  0  0  0  0  0  0  0
    2.7281   -0.1941    0.3268 C   0  0  0  0  0  0  0  0  0  0  0  0
    1.8039    2.2001   -0.7671 C   0  0  0  0  0  0  0  0  0  0  0  0
    1.3627    0.0904    0.3246 C   0  0  0  0  0  0  0  0  0  0  0  0
    0.9006    1.2875   -0.2223 C   0  0  0  0  0  0  0  0  0  0  0  0
   -7.6068    1.5292    1.0288 C   0  0  0  0  0  0  0  0  0  0  0  0
   -5.2426    1.2931    0.4770 C   0  0  0  0  0  0  0  0  0  0  0  0
   -7.7183    2.4447   -0.1824 C   0  0  0  0  0  0  0  0  0  0  0  0
   -6.4005   -0.5831    1.6277 C   0  0  0  0  0  0  0  0  0  0  0  0
   -5.2803    2.5562   -0.1405 C   0  0  0  0  0  0  0  0  0  0  0  0
   -3.9848    0.7001    0.6022 C   0  0  0  0  0  0  0  0  0  0  0  0
   -1.5437    0.7981    0.2702 C   0  0  0  0  0  0  0  0  0  0  0  0
   -2.8695    1.3762    0.1498 C   0  0  0  0  0  0  0  0  0  0  0  0
   -6.4583   -1.7320    0.6594 C   0  0  0  0  0  0  0  0  0  0  0  0
   -5.8422   -2.9529    0.9342 C   0  0  0  0  0  0  0  0  0  0  0  0
   -7.1496   -1.5538   -0.5390 C   0  0  0  0  0  0  0  0  0  0  0  0
   -7.2252   -2.5966   -1.4622 C   0  0  0  0  0  0  0  0  0  0  0  0
   -5.9176   -3.9957    0.0108 C   0  0  0  0  0  0  0  0  0  0  0  0
   -6.6089   -3.8175   -1.1874 C   0  0  0  0  0  0  0  0  0  0  0  0
    7.9965    0.1485   -1.4042 H   0  0  0  0  0  0  0  0  0  0  0  0
    7.0626   -2.1249   -0.9890 H   0  0  0  0  0  0  0  0  0  0  0  0
    6.6174   -1.6515    0.6567 H   0  0  0  0  0  0  0  0  0  0  0  0
    7.1753    0.7785    1.4799 H   0  0  0  0  0  0  0  0  0  0  0  0
    7.9780    1.9010    0.3736 H   0  0  0  0  0  0  0  0  0  0  0  0
    5.5477   -0.5462   -1.9943 H   0  0  0  0  0  0  0  0  0  0  0  0
    4.7122   -1.5886   -0.8444 H   0  0  0  0  0  0  0  0  0  0  0  0
    5.6013    2.3310    0.5195 H   0  0  0  0  0  0  0  0  0  0  0  0
    6.1226    1.9643   -1.1376 H   0  0  0  0  0  0  0  0  0  0  0  0
    9.7437   -1.5713   -1.5605 H   0  0  0  0  0  0  0  0  0  0  0  0
    8.9064   -2.6657   -0.4336 H   0  0  0  0  0  0  0  0  0  0  0  0
    9.8012    1.2804    0.8456 H   0  0  0  0  0  0  0  0  0  0  0  0
   10.2759    0.7858   -0.7967 H   0  0  0  0  0  0  0  0  0  0  0  0
   10.7542   -2.6231    1.1537 H   0  0  0  0  0  0  0  0  0  0  0  0
   11.3048   -3.1152   -0.4533 H   0  0  0  0  0  0  0  0  0  0  0  0
   11.2664   -0.3620    1.8855 H   0  0  0  0  0  0  0  0  0  0  0  0
   12.1633    0.6818    0.7748 H   0  0  0  0  0  0  0  0  0  0  0  0
    3.8426    2.6420   -1.2114 H   0  0  0  0  0  0  0  0  0  0  0  0
    3.0710   -1.1253    0.7709 H   0  0  0  0  0  0  0  0  0  0  0  0
    1.4563    3.1350   -1.1993 H   0  0  0  0  0  0  0  0  0  0  0  0
    0.7266   -0.6628    0.7672 H   0  0  0  0  0  0  0  0  0  0  0  0
   -7.5411    2.1215    1.9506 H   0  0  0  0  0  0  0  0  0  0  0  0
   -8.5137    0.9172    1.0992 H   0  0  0  0  0  0  0  0  0  0  0  0
   -7.8962    1.8590   -1.0922 H   0  0  0  0  0  0  0  0  0  0  0  0
   -8.5638    3.1298   -0.0619 H   0  0  0  0  0  0  0  0  0  0  0  0
   -0.7336    2.4729   -0.6393 H   0  0  0  0  0  0  0  0  0  0  0  0
   -7.2901   -0.6646    2.2675 H   0  0  0  0  0  0  0  0  0  0  0  0
   -5.5553   -0.6203    2.3208 H   0  0  0  0  0  0  0  0  0  0  0  0
   -6.5028    4.0992   -0.8005 H   0  0  0  0  0  0  0  0  0  0  0  0
   -3.8678   -0.2830    1.0444 H   0  0  0  0  0  0  0  0  0  0  0  0
   -7.6600   -0.6253   -0.7741 H   0  0  0  0  0  0  0  0  0  0  0  0
   -5.4430   -4.9531    0.2101 H   0  0  0  0  0  0  0  0  0  0  0  0
   -6.6593   -4.6387   -1.8977 H   0  0  0  0  0  0  0  0  0  0  0  0
  1 36  1  0  0  0  0
  2 38  1  0  0  0  0
  3 19  1  0  0  0  0
  3 20  1  0  0  0  0
  4 33  2  0  0  0  0
  5 12  1  0  0  0  0
  5 17  1  0  0  0  0
  5 18  1  0  0  0  0
  6 15  1  0  0  0  0
  6 16  1  0  0  0  0
  6 21  1  0  0  0  0
  7 27  1  0  0  0  0
  7 28  1  0  0  0  0
  7 30  1  0  0  0  0
  8 26  1  0  0  0  0
  8 33  1  0  0  0  0
  8 66  1  0  0  0  0
  9 29  1  0  0  0  0
  9 31  1  0  0  0  0
  9 69  1  0  0  0  0
 10 11  1  0  0  0  0
 10 31  2  0  0  0  0
 11 34  2  0  0  0  0
 12 13  1  0  0  0  0
 12 14  1  0  0  0  0
 12 41  1  0  0  0  0
 13 15  1  0  0  0  0
 13 42  1  0  0  0  0
 13 43  1  0  0  0  0
 14 16  1  0  0  0  0
 14 44  1  0  0  0  0
 14 45  1  0  0  0  0
 15 46  1  0  0  0  0
 15 47  1  0  0  0  0
 16 48  1  0  0  0  0
 16 49  1  0  0  0  0
 17 19  1  0  0  0  0
 17 50  1  0  0  0  0
 17 51  1  0  0  0  0
 18 20  1  0  0  0  0
 18 52  1  0  0  0  0
 18 53  1  0  0  0  0
 19 54  1  0  0  0  0
 19 55  1  0  0  0  0
 20 56  1  0  0  0  0
 20 57  1  0  0  0  0
 21 22  2  0  0  0  0
 21 23  1  0  0  0  0
 22 24  1  0  0  0  0
 22 58  1  0  0  0  0
 23 25  2  0  0  0  0
 23 59  1  0  0  0  0
 24 26  2  0  0  0  0
 24 60  1  0  0  0  0
 25 26  1  0  0  0  0
 25 61  1  0  0  0  0
 27 29  1  0  0  0  0
 27 62  1  0  0  0  0
 27 63  1  0  0  0  0
 28 31  1  0  0  0  0
 28 32  2  0  0  0  0
 29 64  1  0  0  0  0
 29 65  1  0  0  0  0
 30 35  1  0  0  0  0
 30 67  1  0  0  0  0
 30 68  1  0  0  0  0
 32 34  1  0  0  0  0
 32 70  1  0  0  0  0
 33 34  1  0  0  0  0
 35 36  2  0  0  0  0
 35 37  1  0  0  0  0
 36 39  1  0  0  0  0
 37 38  2  0  0  0  0
 37 71  1  0  0  0  0
 38 40  1  0  0  0  0
 39 40  2  0  0  0  0
 39 72  1  0  0  0  0
 40 73  1  0  0  0  0
M  END
> <PUBCHEM_COMPOUND_CID>
122582664

> <PUBCHEM_CONFORMER_RMSD>
1.2

> <PUBCHEM_CONFORMER_DIVERSEORDER>
1
94
13
68
40
60
54
38
59
46
25
37
89
86
84
87
55
65
48
82
28
85
43
71
9
32
64
69
27
53
83
21
73
56
39
15
49
76
93
74
3
30
19
34
8
35
63
41
58
52
67
90
17
77
51
24
29
10
23
18
72
45
70
79
88
6
22
12
81
91
4
26
78
61
5
20
80
44
16
57
33
62
31
92
2
36
47
7
75
42
50
11
14
66

> <PUBCHEM_MMFF94_PARTIAL_CHARGES>
48
1 -0.18
10 -0.31
11 -0.31
12 0.27
15 0.37
16 0.37
17 0.27
18 0.27
19 0.28
2 -0.18
20 0.28
21 0.1
22 -0.15
23 -0.15
24 -0.15
25 -0.15
26 0.12
27 0.37
28 0.1
29 0.37
3 -0.56
30 0.51
31 0.41
32 -0.15
33 0.54
34 0.4
35 -0.14
36 0.18
37 -0.15
38 0.18
39 -0.15
4 -0.57
40 -0.15
5 -0.81
58 0.15
59 0.15
6 -0.84
60 0.15
61 0.15
66 0.37
69 0.4
7 -0.84
70 0.15
71 0.15
72 0.15
73 0.15
8 -0.55
9 -0.87

> <PUBCHEM_EFFECTIVE_ROTOR_COUNT>
10.2

> <PUBCHEM_PHARMACOPHORE_FEATURES>
15
1 11 acceptor
1 3 acceptor
1 4 acceptor
1 5 cation
1 6 cation
1 7 cation
1 8 donor
1 9 donor
3 9 10 31 cation
6 10 11 28 31 32 34 rings
6 21 22 23 24 25 26 rings
6 3 5 17 18 19 20 rings
6 35 36 37 38 39 40 rings
6 6 12 13 14 15 16 rings
6 7 9 27 28 29 31 rings

> <PUBCHEM_HEAVY_ATOM_COUNT>
40

> <PUBCHEM_ATOM_DEF_STEREO_COUNT>
0

> <PUBCHEM_ATOM_UDEF_STEREO_COUNT>
0

> <PUBCHEM_BOND_DEF_STEREO_COUNT>
0

> <PUBCHEM_BOND_UDEF_STEREO_COUNT>
0

> <PUBCHEM_ISOTOPIC_ATOM_COUNT>
0

> <PUBCHEM_COMPONENT_COUNT>
1

> <PUBCHEM_CACTVS_TAUTO_COUNT>
14

> <PUBCHEM_CONFORMER_ID>
074E768800000001

> <PUBCHEM_MMFF94_ENERGY>
136.2951

> <PUBCHEM_FEATURE_SELFOVERLAP>
76.16

> <PUBCHEM_SHAPE_FINGERPRINT>
10100884 174 18338236080205754355
11050421 43 18410859876146716630
11135926 11 17022902350648581843
11181472 205 11386632011168345260
11456790 92 16487256574080669344
11672396 167 18411417354031494015
12013929 27 17533221010484775311
12089408 11 18261115180215218580
12120059 9 18272934882784697406
12498461 61 18410011030929696395
13782708 43 18129668624864136881
13811026 1 18411985767415566950
14279260 333 18260829315539650307
15065858 18 18411417286013643520
15510794 2 18341896269247639944
15538507 19 18343586239509475217
17324776 126 17411605189136353423
20580484 66 18334296474103298218
212700 22 18407759253530338338
21362267 20 18413668002984997654
22082593 45 16055167303980336703
232437 2 18260270712477585088
24204213 200 14836131996842112644
25025965 108 18201709709069820431
335507 130 18260558831125027017
3711267 37 11023819605241827378
395649 100 18335419080349836551
397830 11 17987792046451854929
4339292 15 18059849602098470439
4353968 344 18334571339251213221
437795 160 18410006655228245672
44280117 145 18412828014786717501
44389302 135 18339640028913323810
44802255 64 13479131324620359737
4625314 4 18409732867420724277
4874694 18 18341895152498049655
57676310 115 18337380533019118653
6691757 9 15339113550332718669
99344 41 18410858741488976894
9962374 69 18186804699810778020

> <PUBCHEM_SHAPE_MULTIPOLES>
780.32
41.93
4.23
1.41
106.48
1.8
0.25
23.34
0.65
-11.93
0.6
-4.03
1.32
-1.25

> <PUBCHEM_SHAPE_SELFOVERLAP>
1670.472

> <PUBCHEM_SHAPE_VOLUME>
432

> <PUBCHEM_COORDINATE_TYPE>
2
5
10

$$$$
