122582649
  -OEChem-07172214063D

 72 77  0     1  0  0  0  0  0999 V2000
   -4.7296   -3.1836    2.4096 Cl  0  0  0  0  0  0  0  0  0  0  0  0
   -7.7933   -2.3315   -2.9551 Cl  0  0  0  0  0  0  0  0  0  0  0  0
   -1.1239   -0.3340    0.8200 O   0  0  0  0  0  0  0  0  0  0  0  0
    9.3610   -0.7761    0.2820 N   0  0  0  0  0  0  0  0  0  0  0  0
    5.3051    0.3367   -0.1764 N   0  0  0  0  0  0  0  0  0  0  0  0
   -6.1169    0.7227    0.9008 N   0  0  1  0  0  0  0  0  0  0  0  0
   -0.1697    1.5435   -0.2145 N   0  0  0  0  0  0  0  0  0  0  0  0
   -6.1605    3.2371   -0.3552 N   0  0  0  0  0  0  0  0  0  0  0  0
   -3.8146    3.1904   -0.5704 N   0  0  0  0  0  0  0  0  0  0  0  0
   -2.6068    2.5860   -0.4197 N   0  0  0  0  0  0  0  0  0  0  0  0
    8.1226   -0.2924   -0.3099 C   0  0  0  0  0  0  0  0  0  0  0  0
    7.6099    0.9210    0.4687 C   0  0  0  0  0  0  0  0  0  0  0  0
    7.0569   -1.3920   -0.3114 C   0  0  0  0  0  0  0  0  0  0  0  0
    9.9170   -1.9191   -0.4420 C   0  0  0  0  0  0  0  0  0  0  0  0
   10.4188    0.2339    0.2669 C   0  0  0  0  0  0  0  0  0  0  0  0
   11.3429   -1.9951    0.0836 C   0  0  0  0  0  0  0  0  0  0  0  0
   11.6715   -0.5812    0.5527 C   0  0  0  0  0  0  0  0  0  0  0  0
    6.2835    1.4274   -0.1001 C   0  0  0  0  0  0  0  0  0  0  0  0
    5.7351   -0.8787   -0.8820 C   0  0  0  0  0  0  0  0  0  0  0  0
    3.9380    0.6381   -0.1868 C   0  0  0  0  0  0  0  0  0  0  0  0
    3.4921    1.8388   -0.7392 C   0  0  0  0  0  0  0  0  0  0  0  0
    3.0216   -0.2624    0.3565 C   0  0  0  0  0  0  0  0  0  0  0  0
    2.1300    2.1390   -0.7486 C   0  0  0  0  0  0  0  0  0  0  0  0
    1.6595    0.0377    0.3473 C   0  0  0  0  0  0  0  0  0  0  0  0
    1.2137    1.2384   -0.2054 C   0  0  0  0  0  0  0  0  0  0  0  0
   -7.2961    1.5812    1.0055 C   0  0  0  0  0  0  0  0  0  0  0  0
   -4.9322    1.3165    0.4654 C   0  0  0  0  0  0  0  0  0  0  0  0
   -7.3915    2.4944   -0.2088 C   0  0  0  0  0  0  0  0  0  0  0  0
   -6.1168   -0.5429    1.6161 C   0  0  0  0  0  0  0  0  0  0  0  0
   -4.9525    2.5781   -0.1560 C   0  0  0  0  0  0  0  0  0  0  0  0
   -1.2383    0.7785    0.2772 C   0  0  0  0  0  0  0  0  0  0  0  0
   -3.6818    0.7094    0.5982 C   0  0  0  0  0  0  0  0  0  0  0  0
   -2.5568    1.3713    0.1490 C   0  0  0  0  0  0  0  0  0  0  0  0
   -6.1832   -1.6939    0.6510 C   0  0  0  0  0  0  0  0  0  0  0  0
   -5.5825   -2.9211    0.9322 C   0  0  0  0  0  0  0  0  0  0  0  0
   -6.8669   -1.5114   -0.5510 C   0  0  0  0  0  0  0  0  0  0  0  0
   -6.9502   -2.5560   -1.4716 C   0  0  0  0  0  0  0  0  0  0  0  0
   -5.6656   -3.9657    0.0116 C   0  0  0  0  0  0  0  0  0  0  0  0
   -6.3494   -3.7832   -1.1903 C   0  0  0  0  0  0  0  0  0  0  0  0
    8.2987    0.0159   -1.3510 H   0  0  0  0  0  0  0  0  0  0  0  0
    8.3172    1.7569    0.4347 H   0  0  0  0  0  0  0  0  0  0  0  0
    7.4695    0.6574    1.5258 H   0  0  0  0  0  0  0  0  0  0  0  0
    6.8904   -1.7564    0.7113 H   0  0  0  0  0  0  0  0  0  0  0  0
    7.3638   -2.2523   -0.9163 H   0  0  0  0  0  0  0  0  0  0  0  0
    9.3907   -2.8558   -0.2342 H   0  0  0  0  0  0  0  0  0  0  0  0
    9.9310   -1.7517   -1.5267 H   0  0  0  0  0  0  0  0  0  0  0  0
   10.5096    0.7208   -0.7126 H   0  0  0  0  0  0  0  0  0  0  0  0
   10.2919    1.0023    1.0355 H   0  0  0  0  0  0  0  0  0  0  0  0
   11.4116   -2.6907    0.9282 H   0  0  0  0  0  0  0  0  0  0  0  0
   12.0378   -2.3368   -0.6902 H   0  0  0  0  0  0  0  0  0  0  0  0
   12.5435   -0.1735    0.0312 H   0  0  0  0  0  0  0  0  0  0  0  0
   11.8953   -0.5900    1.6260 H   0  0  0  0  0  0  0  0  0  0  0  0
    5.9231    2.2301    0.5554 H   0  0  0  0  0  0  0  0  0  0  0  0
    6.4479    1.8527   -1.0981 H   0  0  0  0  0  0  0  0  0  0  0  0
    5.8480   -0.6541   -1.9503 H   0  0  0  0  0  0  0  0  0  0  0  0
    4.9952   -1.6833   -0.8010 H   0  0  0  0  0  0  0  0  0  0  0  0
    4.1756    2.5561   -1.1846 H   0  0  0  0  0  0  0  0  0  0  0  0
    3.3517   -1.1961    0.8050 H   0  0  0  0  0  0  0  0  0  0  0  0
    1.7951    3.0765   -1.1852 H   0  0  0  0  0  0  0  0  0  0  0  0
    1.0128   -0.7068    0.7892 H   0  0  0  0  0  0  0  0  0  0  0  0
   -8.2103    0.9798    1.0734 H   0  0  0  0  0  0  0  0  0  0  0  0
   -7.2279    2.1754    1.9259 H   0  0  0  0  0  0  0  0  0  0  0  0
   -0.4049    2.4412   -0.6333 H   0  0  0  0  0  0  0  0  0  0  0  0
   -7.5719    1.9081   -1.1178 H   0  0  0  0  0  0  0  0  0  0  0  0
   -8.2296    3.1895   -0.0943 H   0  0  0  0  0  0  0  0  0  0  0  0
   -7.0102   -0.6123    2.2521 H   0  0  0  0  0  0  0  0  0  0  0  0
   -5.2753   -0.5877    2.3134 H   0  0  0  0  0  0  0  0  0  0  0  0
   -6.1542    4.1331   -0.8261 H   0  0  0  0  0  0  0  0  0  0  0  0
   -3.5782   -0.2736    1.0439 H   0  0  0  0  0  0  0  0  0  0  0  0
   -7.3656   -0.5778   -0.7912 H   0  0  0  0  0  0  0  0  0  0  0  0
   -5.2029   -4.9279    0.2158 H   0  0  0  0  0  0  0  0  0  0  0  0
   -6.4061   -4.6059   -1.8985 H   0  0  0  0  0  0  0  0  0  0  0  0
  1 35  1  0  0  0  0
  2 37  1  0  0  0  0
  3 31  2  0  0  0  0
  4 11  1  0  0  0  0
  4 14  1  0  0  0  0
  4 15  1  0  0  0  0
  5 18  1  0  0  0  0
  5 19  1  0  0  0  0
  5 20  1  0  0  0  0
  6 26  1  0  0  0  0
  6 27  1  0  0  0  0
  6 29  1  0  0  0  0
  7 25  1  0  0  0  0
  7 31  1  0  0  0  0
  7 63  1  0  0  0  0
  8 28  1  0  0  0  0
  8 30  1  0  0  0  0
  8 68  1  0  0  0  0
  9 10  1  0  0  0  0
  9 30  2  0  0  0  0
 10 33  2  0  0  0  0
 11 12  1  0  0  0  0
 11 13  1  0  0  0  0
 11 40  1  0  0  0  0
 12 18  1  0  0  0  0
 12 41  1  0  0  0  0
 12 42  1  0  0  0  0
 13 19  1  0  0  0  0
 13 43  1  0  0  0  0
 13 44  1  0  0  0  0
 14 16  1  0  0  0  0
 14 45  1  0  0  0  0
 14 46  1  0  0  0  0
 15 17  1  0  0  0  0
 15 47  1  0  0  0  0
 15 48  1  0  0  0  0
 16 17  1  0  0  0  0
 16 49  1  0  0  0  0
 16 50  1  0  0  0  0
 17 51  1  0  0  0  0
 17 52  1  0  0  0  0
 18 53  1  0  0  0  0
 18 54  1  0  0  0  0
 19 55  1  0  0  0  0
 19 56  1  0  0  0  0
 20 21  2  0  0  0  0
 20 22  1  0  0  0  0
 21 23  1  0  0  0  0
 21 57  1  0  0  0  0
 22 24  2  0  0  0  0
 22 58  1  0  0  0  0
 23 25  2  0  0  0  0
 23 59  1  0  0  0  0
 24 25  1  0  0  0  0
 24 60  1  0  0  0  0
 26 28  1  0  0  0  0
 26 61  1  0  0  0  0
 26 62  1  0  0  0  0
 27 30  1  0  0  0  0
 27 32  2  0  0  0  0
 28 64  1  0  0  0  0
 28 65  1  0  0  0  0
 29 34  1  0  0  0  0
 29 66  1  0  0  0  0
 29 67  1  0  0  0  0
 31 33  1  0  0  0  0
 32 33  1  0  0  0  0
 32 69  1  0  0  0  0
 34 35  2  0  0  0  0
 34 36  1  0  0  0  0
 35 38  1  0  0  0  0
 36 37  2  0  0  0  0
 36 70  1  0  0  0  0
 37 39  1  0  0  0  0
 38 39  2  0  0  0  0
 38 71  1  0  0  0  0
 39 72  1  0  0  0  0
M  END
> <PUBCHEM_COMPOUND_CID>
122582649

> <PUBCHEM_CONFORMER_RMSD>
1.2

> <PUBCHEM_CONFORMER_DIVERSEORDER>
1
62
57
32
18
61
29
16
50
58
48
67
21
4
17
69
70
44
66
22
8
12
46
71
30
27
73
53
63
64
72
31
60
49
34
65
9
39
19
36
45
68
59
43
47
51
24
74
42
10
56
11
23
5
52
14
55
41
40
20
2
33
13
26
3
6
15
28
38
7
25
54
37
35

> <PUBCHEM_MMFF94_PARTIAL_CHARGES>
45
1 -0.18
10 -0.31
11 0.27
14 0.27
15 0.27
18 0.37
19 0.37
2 -0.18
20 0.1
21 -0.15
22 -0.15
23 -0.15
24 -0.15
25 0.12
26 0.37
27 0.1
28 0.37
29 0.51
3 -0.57
30 0.41
31 0.54
32 -0.15
33 0.4
34 -0.14
35 0.18
36 -0.15
37 0.18
38 -0.15
39 -0.15
4 -0.81
5 -0.84
57 0.15
58 0.15
59 0.15
6 -0.84
60 0.15
63 0.37
68 0.4
69 0.15
7 -0.55
70 0.15
71 0.15
72 0.15
8 -0.87
9 -0.31

> <PUBCHEM_EFFECTIVE_ROTOR_COUNT>
10

> <PUBCHEM_PHARMACOPHORE_FEATURES>
14
1 10 acceptor
1 3 acceptor
1 4 cation
1 5 cation
1 6 cation
1 7 donor
1 8 donor
3 8 9 30 cation
5 4 14 15 16 17 rings
6 20 21 22 23 24 25 rings
6 34 35 36 37 38 39 rings
6 5 11 12 13 18 19 rings
6 6 8 26 27 28 30 rings
6 9 10 27 30 32 33 rings

> <PUBCHEM_HEAVY_ATOM_COUNT>
39

> <PUBCHEM_ATOM_DEF_STEREO_COUNT>
0

> <PUBCHEM_ATOM_UDEF_STEREO_COUNT>
0

> <PUBCHEM_BOND_DEF_STEREO_COUNT>
0

> <PUBCHEM_BOND_UDEF_STEREO_COUNT>
0

> <PUBCHEM_ISOTOPIC_ATOM_COUNT>
0

> <PUBCHEM_COMPONENT_COUNT>
1

> <PUBCHEM_CACTVS_TAUTO_COUNT>
14

> <PUBCHEM_CONFORMER_ID>
074E767900000001

> <PUBCHEM_MMFF94_ENERGY>
128.9208

> <PUBCHEM_FEATURE_SELFOVERLAP>
71.084

> <PUBCHEM_SHAPE_FINGERPRINT>
10100884 174 18337954600912977442
11135926 11 17240482507566908043
11181472 205 11747201452087142612
11456790 92 16415480455077461344
11477941 20 16515681122717270469
11578821 258 10809352144172576750
12013929 27 17533221010416197047
12089408 11 18333454249303658188
12120059 9 18201440234489671494
12498461 61 18410292501637794051
13782708 43 18129667520920359241
13811026 1 18412267238160633318
14202775 3 18200599095790172390
14279260 333 18260266361206865707
15065858 18 18411698756779685472
15510794 2 18343022164875268108
15538507 19 18343586239372312185
17324776 126 17483380208596278615
18608769 82 18412265034035198193
20580484 66 18334296470035164746
21133665 82 18334858270023500993
21362267 20 18341891884018738942
22082593 45 15983108610388556999
232437 2 18187931639241760792
24204213 200 14764074402914947996
25025965 108 18201709704664089831
335507 130 18260558826650666203
3711267 37 11023819605310438146
395649 100 18334012804751207027
397830 11 17987790942439512081
4339292 15 18060129977468620791
4353968 344 18335415764028227942
437795 160 18410005555800962000
44280117 145 18411983585319064109
44389302 135 18339358553999929714
4625314 4 18409451388338891884
4874694 18 18342176623063774455
504579 68 17967245430003431883
57676310 115 18265041459667334245
57676310 78 17486758957180337919
58083652 198 15267335241228193875
59521270 166 18187923934171250053
6691757 9 15267337431350622652
99344 41 18410858737473603934
9962374 69 18187086174840216700

> <PUBCHEM_SHAPE_MULTIPOLES>
765.6
40.1
4.22
1.42
104.13
1.61
0.27
22.33
1.55
-11.89
0.61
-4.08
1.34
-1.24

> <PUBCHEM_SHAPE_SELFOVERLAP>
1642.393

> <PUBCHEM_SHAPE_VOLUME>
424.4

> <PUBCHEM_COORDINATE_TYPE>
2
5
10

$$$$
